  0
SECTION
  2
ENTITIES
999
DXF created from EnergyPlus
999
Program Version,EnergyPlus-Windows-OMP-32 7.2.0.006, YMD=2014.05.13 16:48
999
Polygon Action,ThickPolyline
999
Color Scheme,Default
999
Text - True North
  0
TEXT
  8
1
  6
Continuous
 62
  3
 10
      -13.45000
 20
        2.49689
 30
        0.10000
 40
 .25
  1
True North
 41
 0.0
  7
MONOTXT
210
0.0
220
0.0
230
1.0
999
Text - Building Title
  0
TEXT
  8
1
  6
Continuous
 62
  3
 10
      -16.45000
 20
       -1.50311
 30
        0.10000
 40
 .4
  1
Building - BUILDING
 41
 0.0
  7
MONOTXT
210
0.0
220
0.0
230
1.0
999
North Arrow Stem
  0
3DFACE
  8
1
 62
  3
 10
      -12.45000
 20
        2.49689
 30
        0.10000
 11
      -12.45000
 21
        2.49689
 31
        0.00000
 12
      -12.45000
 22
       -0.50311
 32
        0.00000
 13
      -12.45000
 23
       -0.50311
 33
        0.10000
999
North Arrow Head 1
  0
3DFACE
  8
1
 62
  3
 10
      -12.45000
 20
        2.49689
 30
        0.10000
 11
      -12.45000
 21
        2.49689
 31
        0.00000
 12
      -12.95000
 22
        1.63086
 32
        0.00000
 13
      -12.95000
 23
        1.63086
 33
        0.10000
999
North Arrow Head 2
  0
3DFACE
  8
1
 62
  3
 10
      -12.45000
 20
        2.49689
 30
        0.10000
 11
      -12.45000
 21
        2.49689
 31
        0.00000
 12
      -11.95000
 22
        1.63086
 32
        0.00000
 13
      -11.95000
 23
        1.63086
 33
        0.10000
999
North Arrow Side 1
  0
3DFACE
  8
1
 62
  3
 10
      -12.95000
 20
        3.99689
 30
        0.10000
 11
      -12.95000
 21
        3.99689
 31
        0.00000
 12
      -12.95000
 22
        2.99689
 32
        0.00000
 13
      -12.95000
 23
        2.99689
 33
        0.10000
999
North Arrow Side 2
  0
3DFACE
  8
1
 62
  3
 10
      -12.95000
 20
        3.99689
 30
        0.10000
 11
      -12.95000
 21
        3.99689
 31
        0.00000
 12
      -11.95000
 22
        2.99689
 32
        0.00000
 13
      -11.95000
 23
        2.99689
 33
        0.10000
999
North Arrow Side 3
  0
3DFACE
  8
1
 62
  3
 10
      -11.95000
 20
        3.99689
 30
        0.10000
 11
      -11.95000
 21
        3.99689
 31
        0.00000
 12
      -11.95000
 22
        2.99689
 32
        0.00000
 13
      -11.95000
 23
        2.99689
 33
        0.10000
999
Zone Names
999
Zone=1:ZONE1
999
Fixed Shading:SHADING GROUP 1 FACE 1
  0
3DFACE
  8
Fixed Shading
 62
  9
 10
        2.10866
 20
       -0.09709
 30
       -1.41469
 11
        1.90866
 21
       -0.10314
 31
       -1.06833
 12
        1.90866
 22
       -0.50308
 32
       -1.07531
 13
        2.10866
 23
       -0.49703
 33
       -1.42167
999
Fixed Shading:Mir-SHADING GROUP 1 FACE 1
  0
3DFACE
  8
Fixed Shading
 62
  9
 10
        2.10866
 20
       -0.49703
 30
       -1.42167
 11
        1.90866
 21
       -0.50308
 31
       -1.07531
 12
        1.90866
 22
       -0.10314
 32
       -1.06833
 13
        2.10866
 23
       -0.09709
 33
       -1.41469
999
Fixed Shading:SHADING GROUP 1 FACE 2
  0
3DFACE
  8
Fixed Shading
 62
  9
 10
        2.11212
 20
       -0.49707
 30
       -1.41967
 11
        1.91212
 21
       -0.50311
 31
       -1.07331
 12
        1.91212
 22
       -0.10318
 32
       -1.06633
 13
        2.11212
 23
       -0.09713
 33
       -1.41269
999
Fixed Shading:Mir-SHADING GROUP 1 FACE 2
  0
3DFACE
  8
Fixed Shading
 62
  9
 10
        2.11212
 20
       -0.09713
 30
       -1.41269
 11
        1.91212
 21
       -0.10318
 31
       -1.06633
 12
        1.91212
 22
       -0.50311
 32
       -1.07331
 13
        2.11212
 23
       -0.49707
 33
       -1.41967
999
Fixed Shading:SHADING GROUP 1 FACE 3
  0
3DFACE
  8
Fixed Shading
 62
  9
 10
        2.10866
 20
       -0.49703
 30
       -1.42167
 11
        2.11212
 21
       -0.09713
 31
       -1.41269
 12
        2.10866
 22
       -0.09709
 32
       -1.41469
 13
        2.10866
 23
       -0.09709
 33
       -1.41469
999
Fixed Shading:Mir-SHADING GROUP 1 FACE 3
  0
3DFACE
  8
Fixed Shading
 62
  9
 10
        2.10866
 20
       -0.09709
 30
       -1.41469
 11
        2.11212
 21
       -0.09713
 31
       -1.41269
 12
        2.10866
 22
       -0.49703
 32
       -1.42167
 13
        2.10866
 23
       -0.49703
 33
       -1.42167
999
Fixed Shading:SHADING GROUP 1 FACE 4
  0
3DFACE
  8
Fixed Shading
 62
  9
 10
        1.90866
 20
       -0.50308
 30
       -1.07531
 11
        2.11212
 21
       -0.49707
 31
       -1.41967
 12
        2.10866
 22
       -0.49703
 32
       -1.42167
 13
        2.10866
 23
       -0.49703
 33
       -1.42167
999
Fixed Shading:Mir-SHADING GROUP 1 FACE 4
  0
3DFACE
  8
Fixed Shading
 62
  9
 10
        2.10866
 20
       -0.49703
 30
       -1.42167
 11
        2.11212
 21
       -0.49707
 31
       -1.41967
 12
        1.90866
 22
       -0.50308
 32
       -1.07531
 13
        1.90866
 23
       -0.50308
 33
       -1.07531
999
Fixed Shading:SHADING GROUP 1 FACE 5
  0
3DFACE
  8
Fixed Shading
 62
  9
 10
        1.90866
 20
       -0.10314
 30
       -1.06833
 11
        1.91212
 21
       -0.50311
 31
       -1.07331
 12
        1.90866
 22
       -0.50308
 32
       -1.07531
 13
        1.90866
 23
       -0.50308
 33
       -1.07531
999
Fixed Shading:Mir-SHADING GROUP 1 FACE 5
  0
3DFACE
  8
Fixed Shading
 62
  9
 10
        1.90866
 20
       -0.50308
 30
       -1.07531
 11
        1.91212
 21
       -0.50311
 31
       -1.07331
 12
        1.90866
 22
       -0.10314
 32
       -1.06833
 13
        1.90866
 23
       -0.10314
 33
       -1.06833
999
Fixed Shading:SHADING GROUP 1 FACE 6
  0
3DFACE
  8
Fixed Shading
 62
  9
 10
        2.10866
 20
       -0.09709
 30
       -1.41469
 11
        1.91212
 21
       -0.10318
 31
       -1.06633
 12
        1.90866
 22
       -0.10314
 32
       -1.06833
 13
        1.90866
 23
       -0.10314
 33
       -1.06833
999
Fixed Shading:Mir-SHADING GROUP 1 FACE 6
  0
3DFACE
  8
Fixed Shading
 62
  9
 10
        1.90866
 20
       -0.10314
 30
       -1.06833
 11
        1.91212
 21
       -0.10318
 31
       -1.06633
 12
        2.10866
 22
       -0.09709
 32
       -1.41469
 13
        2.10866
 23
       -0.09709
 33
       -1.41469
999
Fixed Shading:SHADING GROUP 1 FACE 7
  0
3DFACE
  8
Fixed Shading
 62
  9
 10
        1.60866
 20
       -0.09709
 30
       -1.41469
 11
        1.40866
 21
       -0.10314
 31
       -1.06833
 12
        1.40866
 22
       -0.50308
 32
       -1.07531
 13
        1.60866
 23
       -0.49703
 33
       -1.42167
999
Fixed Shading:Mir-SHADING GROUP 1 FACE 7
  0
3DFACE
  8
Fixed Shading
 62
  9
 10
        1.60866
 20
       -0.49703
 30
       -1.42167
 11
        1.40866
 21
       -0.50308
 31
       -1.07531
 12
        1.40866
 22
       -0.10314
 32
       -1.06833
 13
        1.60866
 23
       -0.09709
 33
       -1.41469
999
Fixed Shading:SHADING GROUP 1 FACE 8
  0
3DFACE
  8
Fixed Shading
 62
  9
 10
        1.61212
 20
       -0.49707
 30
       -1.41967
 11
        1.41212
 21
       -0.50311
 31
       -1.07331
 12
        1.41212
 22
       -0.10318
 32
       -1.06633
 13
        1.61212
 23
       -0.09713
 33
       -1.41269
999
Fixed Shading:Mir-SHADING GROUP 1 FACE 8
  0
3DFACE
  8
Fixed Shading
 62
  9
 10
        1.61212
 20
       -0.09713
 30
       -1.41269
 11
        1.41212
 21
       -0.10318
 31
       -1.06633
 12
        1.41212
 22
       -0.50311
 32
       -1.07331
 13
        1.61212
 23
       -0.49707
 33
       -1.41967
999
Fixed Shading:SHADING GROUP 1 FACE 9
  0
3DFACE
  8
Fixed Shading
 62
  9
 10
        1.60866
 20
       -0.49703
 30
       -1.42167
 11
        1.61212
 21
       -0.09713
 31
       -1.41269
 12
        1.60866
 22
       -0.09709
 32
       -1.41469
 13
        1.60866
 23
       -0.09709
 33
       -1.41469
999
Fixed Shading:Mir-SHADING GROUP 1 FACE 9
  0
3DFACE
  8
Fixed Shading
 62
  9
 10
        1.60866
 20
       -0.09709
 30
       -1.41469
 11
        1.61212
 21
       -0.09713
 31
       -1.41269
 12
        1.60866
 22
       -0.49703
 32
       -1.42167
 13
        1.60866
 23
       -0.49703
 33
       -1.42167
999
Fixed Shading:SHADING GROUP 1 FACE 10
  0
3DFACE
  8
Fixed Shading
 62
  9
 10
        1.40866
 20
       -0.50308
 30
       -1.07531
 11
        1.61212
 21
       -0.49707
 31
       -1.41967
 12
        1.60866
 22
       -0.49703
 32
       -1.42167
 13
        1.60866
 23
       -0.49703
 33
       -1.42167
999
Fixed Shading:Mir-SHADING GROUP 1 FACE 10
  0
3DFACE
  8
Fixed Shading
 62
  9
 10
        1.60866
 20
       -0.49703
 30
       -1.42167
 11
        1.61212
 21
       -0.49707
 31
       -1.41967
 12
        1.40866
 22
       -0.50308
 32
       -1.07531
 13
        1.40866
 23
       -0.50308
 33
       -1.07531
999
Fixed Shading:SHADING GROUP 1 FACE 11
  0
3DFACE
  8
Fixed Shading
 62
  9
 10
        1.40866
 20
       -0.10314
 30
       -1.06833
 11
        1.41212
 21
       -0.50311
 31
       -1.07331
 12
        1.40866
 22
       -0.50308
 32
       -1.07531
 13
        1.40866
 23
       -0.50308
 33
       -1.07531
999
Fixed Shading:Mir-SHADING GROUP 1 FACE 11
  0
3DFACE
  8
Fixed Shading
 62
  9
 10
        1.40866
 20
       -0.50308
 30
       -1.07531
 11
        1.41212
 21
       -0.50311
 31
       -1.07331
 12
        1.40866
 22
       -0.10314
 32
       -1.06833
 13
        1.40866
 23
       -0.10314
 33
       -1.06833
999
Fixed Shading:SHADING GROUP 1 FACE 12
  0
3DFACE
  8
Fixed Shading
 62
  9
 10
        1.60866
 20
       -0.09709
 30
       -1.41469
 11
        1.41212
 21
       -0.10318
 31
       -1.06633
 12
        1.40866
 22
       -0.10314
 32
       -1.06833
 13
        1.40866
 23
       -0.10314
 33
       -1.06833
999
Fixed Shading:Mir-SHADING GROUP 1 FACE 12
  0
3DFACE
  8
Fixed Shading
 62
  9
 10
        1.40866
 20
       -0.10314
 30
       -1.06833
 11
        1.41212
 21
       -0.10318
 31
       -1.06633
 12
        1.60866
 22
       -0.09709
 32
       -1.41469
 13
        1.60866
 23
       -0.09709
 33
       -1.41469
999
Fixed Shading:SHADING GROUP 1 FACE 13
  0
3DFACE
  8
Fixed Shading
 62
  9
 10
        1.10866
 20
       -0.09709
 30
       -1.41469
 11
        0.90866
 21
       -0.10314
 31
       -1.06833
 12
        0.90866
 22
       -0.50308
 32
       -1.07531
 13
        1.10866
 23
       -0.49703
 33
       -1.42167
999
Fixed Shading:Mir-SHADING GROUP 1 FACE 13
  0
3DFACE
  8
Fixed Shading
 62
  9
 10
        1.10866
 20
       -0.49703
 30
       -1.42167
 11
        0.90866
 21
       -0.50308
 31
       -1.07531
 12
        0.90866
 22
       -0.10314
 32
       -1.06833
 13
        1.10866
 23
       -0.09709
 33
       -1.41469
999
Fixed Shading:SHADING GROUP 1 FACE 14
  0
3DFACE
  8
Fixed Shading
 62
  9
 10
        1.11212
 20
       -0.49707
 30
       -1.41967
 11
        0.91212
 21
       -0.50311
 31
       -1.07331
 12
        0.91212
 22
       -0.10318
 32
       -1.06633
 13
        1.11212
 23
       -0.09713
 33
       -1.41269
999
Fixed Shading:Mir-SHADING GROUP 1 FACE 14
  0
3DFACE
  8
Fixed Shading
 62
  9
 10
        1.11212
 20
       -0.09713
 30
       -1.41269
 11
        0.91212
 21
       -0.10318
 31
       -1.06633
 12
        0.91212
 22
       -0.50311
 32
       -1.07331
 13
        1.11212
 23
       -0.49707
 33
       -1.41967
999
Fixed Shading:SHADING GROUP 1 FACE 15
  0
3DFACE
  8
Fixed Shading
 62
  9
 10
        1.10866
 20
       -0.49703
 30
       -1.42167
 11
        1.11212
 21
       -0.09713
 31
       -1.41269
 12
        1.10866
 22
       -0.09709
 32
       -1.41469
 13
        1.10866
 23
       -0.09709
 33
       -1.41469
999
Fixed Shading:Mir-SHADING GROUP 1 FACE 15
  0
3DFACE
  8
Fixed Shading
 62
  9
 10
        1.10866
 20
       -0.09709
 30
       -1.41469
 11
        1.11212
 21
       -0.09713
 31
       -1.41269
 12
        1.10866
 22
       -0.49703
 32
       -1.42167
 13
        1.10866
 23
       -0.49703
 33
       -1.42167
999
Fixed Shading:SHADING GROUP 1 FACE 16
  0
3DFACE
  8
Fixed Shading
 62
  9
 10
        0.90866
 20
       -0.50308
 30
       -1.07531
 11
        1.11212
 21
       -0.49707
 31
       -1.41967
 12
        1.10866
 22
       -0.49703
 32
       -1.42167
 13
        1.10866
 23
       -0.49703
 33
       -1.42167
999
Fixed Shading:Mir-SHADING GROUP 1 FACE 16
  0
3DFACE
  8
Fixed Shading
 62
  9
 10
        1.10866
 20
       -0.49703
 30
       -1.42167
 11
        1.11212
 21
       -0.49707
 31
       -1.41967
 12
        0.90866
 22
       -0.50308
 32
       -1.07531
 13
        0.90866
 23
       -0.50308
 33
       -1.07531
999
Fixed Shading:SHADING GROUP 1 FACE 17
  0
3DFACE
  8
Fixed Shading
 62
  9
 10
        0.90866
 20
       -0.10314
 30
       -1.06833
 11
        0.91212
 21
       -0.50311
 31
       -1.07331
 12
        0.90866
 22
       -0.50308
 32
       -1.07531
 13
        0.90866
 23
       -0.50308
 33
       -1.07531
999
Fixed Shading:Mir-SHADING GROUP 1 FACE 17
  0
3DFACE
  8
Fixed Shading
 62
  9
 10
        0.90866
 20
       -0.50308
 30
       -1.07531
 11
        0.91212
 21
       -0.50311
 31
       -1.07331
 12
        0.90866
 22
       -0.10314
 32
       -1.06833
 13
        0.90866
 23
       -0.10314
 33
       -1.06833
999
Fixed Shading:SHADING GROUP 1 FACE 18
  0
3DFACE
  8
Fixed Shading
 62
  9
 10
        1.10866
 20
       -0.09709
 30
       -1.41469
 11
        0.91212
 21
       -0.10318
 31
       -1.06633
 12
        0.90866
 22
       -0.10314
 32
       -1.06833
 13
        0.90866
 23
       -0.10314
 33
       -1.06833
999
Fixed Shading:Mir-SHADING GROUP 1 FACE 18
  0
3DFACE
  8
Fixed Shading
 62
  9
 10
        0.90866
 20
       -0.10314
 30
       -1.06833
 11
        0.91212
 21
       -0.10318
 31
       -1.06633
 12
        1.10866
 22
       -0.09709
 32
       -1.41469
 13
        1.10866
 23
       -0.09709
 33
       -1.41469
999
Fixed Shading:SHADING GROUP 1 FACE 19
  0
3DFACE
  8
Fixed Shading
 62
  9
 10
        0.60866
 20
       -0.09709
 30
       -1.41469
 11
        0.40866
 21
       -0.10314
 31
       -1.06833
 12
        0.40866
 22
       -0.50308
 32
       -1.07531
 13
        0.60866
 23
       -0.49703
 33
       -1.42167
999
Fixed Shading:Mir-SHADING GROUP 1 FACE 19
  0
3DFACE
  8
Fixed Shading
 62
  9
 10
        0.60866
 20
       -0.49703
 30
       -1.42167
 11
        0.40866
 21
       -0.50308
 31
       -1.07531
 12
        0.40866
 22
       -0.10314
 32
       -1.06833
 13
        0.60866
 23
       -0.09709
 33
       -1.41469
999
Fixed Shading:SHADING GROUP 1 FACE 20
  0
3DFACE
  8
Fixed Shading
 62
  9
 10
        0.61212
 20
       -0.49707
 30
       -1.41967
 11
        0.41212
 21
       -0.50311
 31
       -1.07331
 12
        0.41212
 22
       -0.10318
 32
       -1.06633
 13
        0.61212
 23
       -0.09713
 33
       -1.41269
999
Fixed Shading:Mir-SHADING GROUP 1 FACE 20
  0
3DFACE
  8
Fixed Shading
 62
  9
 10
        0.61212
 20
       -0.09713
 30
       -1.41269
 11
        0.41212
 21
       -0.10318
 31
       -1.06633
 12
        0.41212
 22
       -0.50311
 32
       -1.07331
 13
        0.61212
 23
       -0.49707
 33
       -1.41967
999
Fixed Shading:SHADING GROUP 1 FACE 21
  0
3DFACE
  8
Fixed Shading
 62
  9
 10
        0.60866
 20
       -0.49703
 30
       -1.42167
 11
        0.61212
 21
       -0.09713
 31
       -1.41269
 12
        0.60866
 22
       -0.09709
 32
       -1.41469
 13
        0.60866
 23
       -0.09709
 33
       -1.41469
999
Fixed Shading:Mir-SHADING GROUP 1 FACE 21
  0
3DFACE
  8
Fixed Shading
 62
  9
 10
        0.60866
 20
       -0.09709
 30
       -1.41469
 11
        0.61212
 21
       -0.09713
 31
       -1.41269
 12
        0.60866
 22
       -0.49703
 32
       -1.42167
 13
        0.60866
 23
       -0.49703
 33
       -1.42167
999
Fixed Shading:SHADING GROUP 1 FACE 22
  0
3DFACE
  8
Fixed Shading
 62
  9
 10
        0.40866
 20
       -0.50308
 30
       -1.07531
 11
        0.61212
 21
       -0.49707
 31
       -1.41967
 12
        0.60866
 22
       -0.49703
 32
       -1.42167
 13
        0.60866
 23
       -0.49703
 33
       -1.42167
999
Fixed Shading:Mir-SHADING GROUP 1 FACE 22
  0
3DFACE
  8
Fixed Shading
 62
  9
 10
        0.60866
 20
       -0.49703
 30
       -1.42167
 11
        0.61212
 21
       -0.49707
 31
       -1.41967
 12
        0.40866
 22
       -0.50308
 32
       -1.07531
 13
        0.40866
 23
       -0.50308
 33
       -1.07531
999
Fixed Shading:SHADING GROUP 1 FACE 23
  0
3DFACE
  8
Fixed Shading
 62
  9
 10
        0.40866
 20
       -0.10314
 30
       -1.06833
 11
        0.41212
 21
       -0.50311
 31
       -1.07331
 12
        0.40866
 22
       -0.50308
 32
       -1.07531
 13
        0.40866
 23
       -0.50308
 33
       -1.07531
999
Fixed Shading:Mir-SHADING GROUP 1 FACE 23
  0
3DFACE
  8
Fixed Shading
 62
  9
 10
        0.40866
 20
       -0.50308
 30
       -1.07531
 11
        0.41212
 21
       -0.50311
 31
       -1.07331
 12
        0.40866
 22
       -0.10314
 32
       -1.06833
 13
        0.40866
 23
       -0.10314
 33
       -1.06833
999
Fixed Shading:SHADING GROUP 1 FACE 24
  0
3DFACE
  8
Fixed Shading
 62
  9
 10
        0.60866
 20
       -0.09709
 30
       -1.41469
 11
        0.41212
 21
       -0.10318
 31
       -1.06633
 12
        0.40866
 22
       -0.10314
 32
       -1.06833
 13
        0.40866
 23
       -0.10314
 33
       -1.06833
999
Fixed Shading:Mir-SHADING GROUP 1 FACE 24
  0
3DFACE
  8
Fixed Shading
 62
  9
 10
        0.40866
 20
       -0.10314
 30
       -1.06833
 11
        0.41212
 21
       -0.10318
 31
       -1.06633
 12
        0.60866
 22
       -0.09709
 32
       -1.41469
 13
        0.60866
 23
       -0.09709
 33
       -1.41469
999
Fixed Shading:SHADING GROUP 1 FACE 25
  0
3DFACE
  8
Fixed Shading
 62
  9
 10
        0.10866
 20
       -0.09709
 30
       -1.41469
 11
       -0.09134
 21
       -0.10314
 31
       -1.06833
 12
       -0.09134
 22
       -0.50308
 32
       -1.07531
 13
        0.10866
 23
       -0.49703
 33
       -1.42167
999
Fixed Shading:Mir-SHADING GROUP 1 FACE 25
  0
3DFACE
  8
Fixed Shading
 62
  9
 10
        0.10866
 20
       -0.49703
 30
       -1.42167
 11
       -0.09134
 21
       -0.50308
 31
       -1.07531
 12
       -0.09134
 22
       -0.10314
 32
       -1.06833
 13
        0.10866
 23
       -0.09709
 33
       -1.41469
999
Fixed Shading:SHADING GROUP 1 FACE 26
  0
3DFACE
  8
Fixed Shading
 62
  9
 10
        0.11212
 20
       -0.49707
 30
       -1.41967
 11
       -0.08788
 21
       -0.50311
 31
       -1.07331
 12
       -0.08788
 22
       -0.10318
 32
       -1.06633
 13
        0.11212
 23
       -0.09713
 33
       -1.41269
999
Fixed Shading:Mir-SHADING GROUP 1 FACE 26
  0
3DFACE
  8
Fixed Shading
 62
  9
 10
        0.11212
 20
       -0.09713
 30
       -1.41269
 11
       -0.08788
 21
       -0.10318
 31
       -1.06633
 12
       -0.08788
 22
       -0.50311
 32
       -1.07331
 13
        0.11212
 23
       -0.49707
 33
       -1.41967
999
Fixed Shading:SHADING GROUP 1 FACE 27
  0
3DFACE
  8
Fixed Shading
 62
  9
 10
        0.10866
 20
       -0.49703
 30
       -1.42167
 11
        0.11212
 21
       -0.09713
 31
       -1.41269
 12
        0.10866
 22
       -0.09709
 32
       -1.41469
 13
        0.10866
 23
       -0.09709
 33
       -1.41469
999
Fixed Shading:Mir-SHADING GROUP 1 FACE 27
  0
3DFACE
  8
Fixed Shading
 62
  9
 10
        0.10866
 20
       -0.09709
 30
       -1.41469
 11
        0.11212
 21
       -0.09713
 31
       -1.41269
 12
        0.10866
 22
       -0.49703
 32
       -1.42167
 13
        0.10866
 23
       -0.49703
 33
       -1.42167
999
Fixed Shading:SHADING GROUP 1 FACE 28
  0
3DFACE
  8
Fixed Shading
 62
  9
 10
       -0.09134
 20
       -0.50308
 30
       -1.07531
 11
        0.11212
 21
       -0.49707
 31
       -1.41967
 12
        0.10866
 22
       -0.49703
 32
       -1.42167
 13
        0.10866
 23
       -0.49703
 33
       -1.42167
999
Fixed Shading:Mir-SHADING GROUP 1 FACE 28
  0
3DFACE
  8
Fixed Shading
 62
  9
 10
        0.10866
 20
       -0.49703
 30
       -1.42167
 11
        0.11212
 21
       -0.49707
 31
       -1.41967
 12
       -0.09134
 22
       -0.50308
 32
       -1.07531
 13
       -0.09134
 23
       -0.50308
 33
       -1.07531
999
Fixed Shading:SHADING GROUP 1 FACE 29
  0
3DFACE
  8
Fixed Shading
 62
  9
 10
       -0.09134
 20
       -0.10314
 30
       -1.06833
 11
       -0.08788
 21
       -0.50311
 31
       -1.07331
 12
       -0.09134
 22
       -0.50308
 32
       -1.07531
 13
       -0.09134
 23
       -0.50308
 33
       -1.07531
999
Fixed Shading:Mir-SHADING GROUP 1 FACE 29
  0
3DFACE
  8
Fixed Shading
 62
  9
 10
       -0.09134
 20
       -0.50308
 30
       -1.07531
 11
       -0.08788
 21
       -0.50311
 31
       -1.07331
 12
       -0.09134
 22
       -0.10314
 32
       -1.06833
 13
       -0.09134
 23
       -0.10314
 33
       -1.06833
999
Fixed Shading:SHADING GROUP 1 FACE 30
  0
3DFACE
  8
Fixed Shading
 62
  9
 10
        0.10866
 20
       -0.09709
 30
       -1.41469
 11
       -0.08788
 21
       -0.10318
 31
       -1.06633
 12
       -0.09134
 22
       -0.10314
 32
       -1.06833
 13
       -0.09134
 23
       -0.10314
 33
       -1.06833
999
Fixed Shading:Mir-SHADING GROUP 1 FACE 30
  0
3DFACE
  8
Fixed Shading
 62
  9
 10
       -0.09134
 20
       -0.10314
 30
       -1.06833
 11
       -0.08788
 21
       -0.10318
 31
       -1.06633
 12
        0.10866
 22
       -0.09709
 32
       -1.41469
 13
        0.10866
 23
       -0.09709
 33
       -1.41469
999
Fixed Shading:SHADING GROUP 1 FACE 31
  0
3DFACE
  8
Fixed Shading
 62
  9
 10
       -0.39134
 20
       -0.09709
 30
       -1.41469
 11
       -0.59134
 21
       -0.10314
 31
       -1.06833
 12
       -0.59134
 22
       -0.50308
 32
       -1.07531
 13
       -0.39134
 23
       -0.49703
 33
       -1.42167
999
Fixed Shading:Mir-SHADING GROUP 1 FACE 31
  0
3DFACE
  8
Fixed Shading
 62
  9
 10
       -0.39134
 20
       -0.49703
 30
       -1.42167
 11
       -0.59134
 21
       -0.50308
 31
       -1.07531
 12
       -0.59134
 22
       -0.10314
 32
       -1.06833
 13
       -0.39134
 23
       -0.09709
 33
       -1.41469
999
Fixed Shading:SHADING GROUP 1 FACE 32
  0
3DFACE
  8
Fixed Shading
 62
  9
 10
       -0.38788
 20
       -0.49707
 30
       -1.41967
 11
       -0.58788
 21
       -0.50311
 31
       -1.07331
 12
       -0.58788
 22
       -0.10318
 32
       -1.06633
 13
       -0.38788
 23
       -0.09713
 33
       -1.41269
999
Fixed Shading:Mir-SHADING GROUP 1 FACE 32
  0
3DFACE
  8
Fixed Shading
 62
  9
 10
       -0.38788
 20
       -0.09713
 30
       -1.41269
 11
       -0.58788
 21
       -0.10318
 31
       -1.06633
 12
       -0.58788
 22
       -0.50311
 32
       -1.07331
 13
       -0.38788
 23
       -0.49707
 33
       -1.41967
999
Fixed Shading:SHADING GROUP 1 FACE 33
  0
3DFACE
  8
Fixed Shading
 62
  9
 10
       -0.39134
 20
       -0.49703
 30
       -1.42167
 11
       -0.38788
 21
       -0.09713
 31
       -1.41269
 12
       -0.39134
 22
       -0.09709
 32
       -1.41469
 13
       -0.39134
 23
       -0.09709
 33
       -1.41469
999
Fixed Shading:Mir-SHADING GROUP 1 FACE 33
  0
3DFACE
  8
Fixed Shading
 62
  9
 10
       -0.39134
 20
       -0.09709
 30
       -1.41469
 11
       -0.38788
 21
       -0.09713
 31
       -1.41269
 12
       -0.39134
 22
       -0.49703
 32
       -1.42167
 13
       -0.39134
 23
       -0.49703
 33
       -1.42167
999
Fixed Shading:SHADING GROUP 1 FACE 34
  0
3DFACE
  8
Fixed Shading
 62
  9
 10
       -0.59134
 20
       -0.50308
 30
       -1.07531
 11
       -0.38788
 21
       -0.49707
 31
       -1.41967
 12
       -0.39134
 22
       -0.49703
 32
       -1.42167
 13
       -0.39134
 23
       -0.49703
 33
       -1.42167
999
Fixed Shading:Mir-SHADING GROUP 1 FACE 34
  0
3DFACE
  8
Fixed Shading
 62
  9
 10
       -0.39134
 20
       -0.49703
 30
       -1.42167
 11
       -0.38788
 21
       -0.49707
 31
       -1.41967
 12
       -0.59134
 22
       -0.50308
 32
       -1.07531
 13
       -0.59134
 23
       -0.50308
 33
       -1.07531
999
Fixed Shading:SHADING GROUP 1 FACE 35
  0
3DFACE
  8
Fixed Shading
 62
  9
 10
       -0.59134
 20
       -0.10314
 30
       -1.06833
 11
       -0.58788
 21
       -0.50311
 31
       -1.07331
 12
       -0.59134
 22
       -0.50308
 32
       -1.07531
 13
       -0.59134
 23
       -0.50308
 33
       -1.07531
999
Fixed Shading:Mir-SHADING GROUP 1 FACE 35
  0
3DFACE
  8
Fixed Shading
 62
  9
 10
       -0.59134
 20
       -0.50308
 30
       -1.07531
 11
       -0.58788
 21
       -0.50311
 31
       -1.07331
 12
       -0.59134
 22
       -0.10314
 32
       -1.06833
 13
       -0.59134
 23
       -0.10314
 33
       -1.06833
999
Fixed Shading:SHADING GROUP 1 FACE 36
  0
3DFACE
  8
Fixed Shading
 62
  9
 10
       -0.39134
 20
       -0.09709
 30
       -1.41469
 11
       -0.58788
 21
       -0.10318
 31
       -1.06633
 12
       -0.59134
 22
       -0.10314
 32
       -1.06833
 13
       -0.59134
 23
       -0.10314
 33
       -1.06833
999
Fixed Shading:Mir-SHADING GROUP 1 FACE 36
  0
3DFACE
  8
Fixed Shading
 62
  9
 10
       -0.59134
 20
       -0.10314
 30
       -1.06833
 11
       -0.58788
 21
       -0.10318
 31
       -1.06633
 12
       -0.39134
 22
       -0.09709
 32
       -1.41469
 13
       -0.39134
 23
       -0.09709
 33
       -1.41469
999
Fixed Shading:SHADING GROUP 1 FACE 37
  0
3DFACE
  8
Fixed Shading
 62
  9
 10
       -0.89134
 20
       -0.09709
 30
       -1.41469
 11
       -1.09134
 21
       -0.10314
 31
       -1.06833
 12
       -1.09134
 22
       -0.50308
 32
       -1.07531
 13
       -0.89134
 23
       -0.49703
 33
       -1.42167
999
Fixed Shading:Mir-SHADING GROUP 1 FACE 37
  0
3DFACE
  8
Fixed Shading
 62
  9
 10
       -0.89134
 20
       -0.49703
 30
       -1.42167
 11
       -1.09134
 21
       -0.50308
 31
       -1.07531
 12
       -1.09134
 22
       -0.10314
 32
       -1.06833
 13
       -0.89134
 23
       -0.09709
 33
       -1.41469
999
Fixed Shading:SHADING GROUP 1 FACE 38
  0
3DFACE
  8
Fixed Shading
 62
  9
 10
       -0.88788
 20
       -0.49707
 30
       -1.41967
 11
       -1.08788
 21
       -0.50311
 31
       -1.07331
 12
       -1.08788
 22
       -0.10318
 32
       -1.06633
 13
       -0.88788
 23
       -0.09713
 33
       -1.41269
999
Fixed Shading:Mir-SHADING GROUP 1 FACE 38
  0
3DFACE
  8
Fixed Shading
 62
  9
 10
       -0.88788
 20
       -0.09713
 30
       -1.41269
 11
       -1.08788
 21
       -0.10318
 31
       -1.06633
 12
       -1.08788
 22
       -0.50311
 32
       -1.07331
 13
       -0.88788
 23
       -0.49707
 33
       -1.41967
999
Fixed Shading:SHADING GROUP 1 FACE 39
  0
3DFACE
  8
Fixed Shading
 62
  9
 10
       -0.89134
 20
       -0.49703
 30
       -1.42167
 11
       -0.88788
 21
       -0.09713
 31
       -1.41269
 12
       -0.89134
 22
       -0.09709
 32
       -1.41469
 13
       -0.89134
 23
       -0.09709
 33
       -1.41469
999
Fixed Shading:Mir-SHADING GROUP 1 FACE 39
  0
3DFACE
  8
Fixed Shading
 62
  9
 10
       -0.89134
 20
       -0.09709
 30
       -1.41469
 11
       -0.88788
 21
       -0.09713
 31
       -1.41269
 12
       -0.89134
 22
       -0.49703
 32
       -1.42167
 13
       -0.89134
 23
       -0.49703
 33
       -1.42167
999
Fixed Shading:SHADING GROUP 1 FACE 40
  0
3DFACE
  8
Fixed Shading
 62
  9
 10
       -1.09134
 20
       -0.50308
 30
       -1.07531
 11
       -0.88788
 21
       -0.49707
 31
       -1.41967
 12
       -0.89134
 22
       -0.49703
 32
       -1.42167
 13
       -0.89134
 23
       -0.49703
 33
       -1.42167
999
Fixed Shading:Mir-SHADING GROUP 1 FACE 40
  0
3DFACE
  8
Fixed Shading
 62
  9
 10
       -0.89134
 20
       -0.49703
 30
       -1.42167
 11
       -0.88788
 21
       -0.49707
 31
       -1.41967
 12
       -1.09134
 22
       -0.50308
 32
       -1.07531
 13
       -1.09134
 23
       -0.50308
 33
       -1.07531
999
Fixed Shading:SHADING GROUP 1 FACE 41
  0
3DFACE
  8
Fixed Shading
 62
  9
 10
       -1.09134
 20
       -0.10314
 30
       -1.06833
 11
       -1.08788
 21
       -0.50311
 31
       -1.07331
 12
       -1.09134
 22
       -0.50308
 32
       -1.07531
 13
       -1.09134
 23
       -0.50308
 33
       -1.07531
999
Fixed Shading:Mir-SHADING GROUP 1 FACE 41
  0
3DFACE
  8
Fixed Shading
 62
  9
 10
       -1.09134
 20
       -0.50308
 30
       -1.07531
 11
       -1.08788
 21
       -0.50311
 31
       -1.07331
 12
       -1.09134
 22
       -0.10314
 32
       -1.06833
 13
       -1.09134
 23
       -0.10314
 33
       -1.06833
999
Fixed Shading:SHADING GROUP 1 FACE 42
  0
3DFACE
  8
Fixed Shading
 62
  9
 10
       -0.89134
 20
       -0.09709
 30
       -1.41469
 11
       -1.08788
 21
       -0.10318
 31
       -1.06633
 12
       -1.09134
 22
       -0.10314
 32
       -1.06833
 13
       -1.09134
 23
       -0.10314
 33
       -1.06833
999
Fixed Shading:Mir-SHADING GROUP 1 FACE 42
  0
3DFACE
  8
Fixed Shading
 62
  9
 10
       -1.09134
 20
       -0.10314
 30
       -1.06833
 11
       -1.08788
 21
       -0.10318
 31
       -1.06633
 12
       -0.89134
 22
       -0.09709
 32
       -1.41469
 13
       -0.89134
 23
       -0.09709
 33
       -1.41469
999
Fixed Shading:SHADING GROUP 1 FACE 43
  0
3DFACE
  8
Fixed Shading
 62
  9
 10
       -1.39134
 20
       -0.09709
 30
       -1.41469
 11
       -1.59134
 21
       -0.10314
 31
       -1.06833
 12
       -1.59134
 22
       -0.50308
 32
       -1.07531
 13
       -1.39134
 23
       -0.49703
 33
       -1.42167
999
Fixed Shading:Mir-SHADING GROUP 1 FACE 43
  0
3DFACE
  8
Fixed Shading
 62
  9
 10
       -1.39134
 20
       -0.49703
 30
       -1.42167
 11
       -1.59134
 21
       -0.50308
 31
       -1.07531
 12
       -1.59134
 22
       -0.10314
 32
       -1.06833
 13
       -1.39134
 23
       -0.09709
 33
       -1.41469
999
Fixed Shading:SHADING GROUP 1 FACE 44
  0
3DFACE
  8
Fixed Shading
 62
  9
 10
       -1.38788
 20
       -0.49707
 30
       -1.41967
 11
       -1.58788
 21
       -0.50311
 31
       -1.07331
 12
       -1.58788
 22
       -0.10318
 32
       -1.06633
 13
       -1.38788
 23
       -0.09713
 33
       -1.41269
999
Fixed Shading:Mir-SHADING GROUP 1 FACE 44
  0
3DFACE
  8
Fixed Shading
 62
  9
 10
       -1.38788
 20
       -0.09713
 30
       -1.41269
 11
       -1.58788
 21
       -0.10318
 31
       -1.06633
 12
       -1.58788
 22
       -0.50311
 32
       -1.07331
 13
       -1.38788
 23
       -0.49707
 33
       -1.41967
999
Fixed Shading:SHADING GROUP 1 FACE 45
  0
3DFACE
  8
Fixed Shading
 62
  9
 10
       -1.39134
 20
       -0.49703
 30
       -1.42167
 11
       -1.38788
 21
       -0.09713
 31
       -1.41269
 12
       -1.39134
 22
       -0.09709
 32
       -1.41469
 13
       -1.39134
 23
       -0.09709
 33
       -1.41469
999
Fixed Shading:Mir-SHADING GROUP 1 FACE 45
  0
3DFACE
  8
Fixed Shading
 62
  9
 10
       -1.39134
 20
       -0.09709
 30
       -1.41469
 11
       -1.38788
 21
       -0.09713
 31
       -1.41269
 12
       -1.39134
 22
       -0.49703
 32
       -1.42167
 13
       -1.39134
 23
       -0.49703
 33
       -1.42167
999
Fixed Shading:SHADING GROUP 1 FACE 46
  0
3DFACE
  8
Fixed Shading
 62
  9
 10
       -1.59134
 20
       -0.50308
 30
       -1.07531
 11
       -1.38788
 21
       -0.49707
 31
       -1.41967
 12
       -1.39134
 22
       -0.49703
 32
       -1.42167
 13
       -1.39134
 23
       -0.49703
 33
       -1.42167
999
Fixed Shading:Mir-SHADING GROUP 1 FACE 46
  0
3DFACE
  8
Fixed Shading
 62
  9
 10
       -1.39134
 20
       -0.49703
 30
       -1.42167
 11
       -1.38788
 21
       -0.49707
 31
       -1.41967
 12
       -1.59134
 22
       -0.50308
 32
       -1.07531
 13
       -1.59134
 23
       -0.50308
 33
       -1.07531
999
Fixed Shading:SHADING GROUP 1 FACE 47
  0
3DFACE
  8
Fixed Shading
 62
  9
 10
       -1.59134
 20
       -0.10314
 30
       -1.06833
 11
       -1.58788
 21
       -0.50311
 31
       -1.07331
 12
       -1.59134
 22
       -0.50308
 32
       -1.07531
 13
       -1.59134
 23
       -0.50308
 33
       -1.07531
999
Fixed Shading:Mir-SHADING GROUP 1 FACE 47
  0
3DFACE
  8
Fixed Shading
 62
  9
 10
       -1.59134
 20
       -0.50308
 30
       -1.07531
 11
       -1.58788
 21
       -0.50311
 31
       -1.07331
 12
       -1.59134
 22
       -0.10314
 32
       -1.06833
 13
       -1.59134
 23
       -0.10314
 33
       -1.06833
999
Fixed Shading:SHADING GROUP 1 FACE 48
  0
3DFACE
  8
Fixed Shading
 62
  9
 10
       -1.39134
 20
       -0.09709
 30
       -1.41469
 11
       -1.58788
 21
       -0.10318
 31
       -1.06633
 12
       -1.59134
 22
       -0.10314
 32
       -1.06833
 13
       -1.59134
 23
       -0.10314
 33
       -1.06833
999
Fixed Shading:Mir-SHADING GROUP 1 FACE 48
  0
3DFACE
  8
Fixed Shading
 62
  9
 10
       -1.59134
 20
       -0.10314
 30
       -1.06833
 11
       -1.58788
 21
       -0.10318
 31
       -1.06633
 12
       -1.39134
 22
       -0.09709
 32
       -1.41469
 13
       -1.39134
 23
       -0.09709
 33
       -1.41469
999
Fixed Shading:SHADING GROUP 1 FACE 49
  0
3DFACE
  8
Fixed Shading
 62
  9
 10
       -1.89134
 20
       -0.09709
 30
       -1.41469
 11
       -2.09134
 21
       -0.10314
 31
       -1.06833
 12
       -2.09134
 22
       -0.50308
 32
       -1.07531
 13
       -1.89134
 23
       -0.49703
 33
       -1.42167
999
Fixed Shading:Mir-SHADING GROUP 1 FACE 49
  0
3DFACE
  8
Fixed Shading
 62
  9
 10
       -1.89134
 20
       -0.49703
 30
       -1.42167
 11
       -2.09134
 21
       -0.50308
 31
       -1.07531
 12
       -2.09134
 22
       -0.10314
 32
       -1.06833
 13
       -1.89134
 23
       -0.09709
 33
       -1.41469
999
Fixed Shading:SHADING GROUP 1 FACE 50
  0
3DFACE
  8
Fixed Shading
 62
  9
 10
       -1.88788
 20
       -0.49707
 30
       -1.41967
 11
       -2.08788
 21
       -0.50311
 31
       -1.07331
 12
       -2.08788
 22
       -0.10318
 32
       -1.06633
 13
       -1.88788
 23
       -0.09713
 33
       -1.41269
999
Fixed Shading:Mir-SHADING GROUP 1 FACE 50
  0
3DFACE
  8
Fixed Shading
 62
  9
 10
       -1.88788
 20
       -0.09713
 30
       -1.41269
 11
       -2.08788
 21
       -0.10318
 31
       -1.06633
 12
       -2.08788
 22
       -0.50311
 32
       -1.07331
 13
       -1.88788
 23
       -0.49707
 33
       -1.41967
999
Fixed Shading:SHADING GROUP 1 FACE 51
  0
3DFACE
  8
Fixed Shading
 62
  9
 10
       -1.89134
 20
       -0.49703
 30
       -1.42167
 11
       -1.88788
 21
       -0.09713
 31
       -1.41269
 12
       -1.89134
 22
       -0.09709
 32
       -1.41469
 13
       -1.89134
 23
       -0.09709
 33
       -1.41469
999
Fixed Shading:Mir-SHADING GROUP 1 FACE 51
  0
3DFACE
  8
Fixed Shading
 62
  9
 10
       -1.89134
 20
       -0.09709
 30
       -1.41469
 11
       -1.88788
 21
       -0.09713
 31
       -1.41269
 12
       -1.89134
 22
       -0.49703
 32
       -1.42167
 13
       -1.89134
 23
       -0.49703
 33
       -1.42167
999
Fixed Shading:SHADING GROUP 1 FACE 52
  0
3DFACE
  8
Fixed Shading
 62
  9
 10
       -2.09134
 20
       -0.50308
 30
       -1.07531
 11
       -1.88788
 21
       -0.49707
 31
       -1.41967
 12
       -1.89134
 22
       -0.49703
 32
       -1.42167
 13
       -1.89134
 23
       -0.49703
 33
       -1.42167
999
Fixed Shading:Mir-SHADING GROUP 1 FACE 52
  0
3DFACE
  8
Fixed Shading
 62
  9
 10
       -1.89134
 20
       -0.49703
 30
       -1.42167
 11
       -1.88788
 21
       -0.49707
 31
       -1.41967
 12
       -2.09134
 22
       -0.50308
 32
       -1.07531
 13
       -2.09134
 23
       -0.50308
 33
       -1.07531
999
Fixed Shading:SHADING GROUP 1 FACE 53
  0
3DFACE
  8
Fixed Shading
 62
  9
 10
       -2.09134
 20
       -0.10314
 30
       -1.06833
 11
       -2.08788
 21
       -0.50311
 31
       -1.07331
 12
       -2.09134
 22
       -0.50308
 32
       -1.07531
 13
       -2.09134
 23
       -0.50308
 33
       -1.07531
999
Fixed Shading:Mir-SHADING GROUP 1 FACE 53
  0
3DFACE
  8
Fixed Shading
 62
  9
 10
       -2.09134
 20
       -0.50308
 30
       -1.07531
 11
       -2.08788
 21
       -0.50311
 31
       -1.07331
 12
       -2.09134
 22
       -0.10314
 32
       -1.06833
 13
       -2.09134
 23
       -0.10314
 33
       -1.06833
999
Fixed Shading:SHADING GROUP 1 FACE 54
  0
3DFACE
  8
Fixed Shading
 62
  9
 10
       -1.89134
 20
       -0.09709
 30
       -1.41469
 11
       -2.08788
 21
       -0.10318
 31
       -1.06633
 12
       -2.09134
 22
       -0.10314
 32
       -1.06833
 13
       -2.09134
 23
       -0.10314
 33
       -1.06833
999
Fixed Shading:Mir-SHADING GROUP 1 FACE 54
  0
3DFACE
  8
Fixed Shading
 62
  9
 10
       -2.09134
 20
       -0.10314
 30
       -1.06833
 11
       -2.08788
 21
       -0.10318
 31
       -1.06633
 12
       -1.89134
 22
       -0.09709
 32
       -1.41469
 13
       -1.89134
 23
       -0.09709
 33
       -1.41469
999
Fixed Shading:SHADING GROUP 1 FACE 55
  0
3DFACE
  8
Fixed Shading
 62
  9
 10
        2.10866
 20
       -0.09709
 30
       -0.91469
 11
        1.90866
 21
       -0.10314
 31
       -0.56833
 12
        1.90866
 22
       -0.50308
 32
       -0.57531
 13
        2.10866
 23
       -0.49703
 33
       -0.92167
999
Fixed Shading:Mir-SHADING GROUP 1 FACE 55
  0
3DFACE
  8
Fixed Shading
 62
  9
 10
        2.10866
 20
       -0.49703
 30
       -0.92167
 11
        1.90866
 21
       -0.50308
 31
       -0.57531
 12
        1.90866
 22
       -0.10314
 32
       -0.56833
 13
        2.10866
 23
       -0.09709
 33
       -0.91469
999
Fixed Shading:SHADING GROUP 1 FACE 56
  0
3DFACE
  8
Fixed Shading
 62
  9
 10
        2.11212
 20
       -0.49707
 30
       -0.91967
 11
        1.91212
 21
       -0.50311
 31
       -0.57331
 12
        1.91212
 22
       -0.10318
 32
       -0.56633
 13
        2.11212
 23
       -0.09713
 33
       -0.91269
999
Fixed Shading:Mir-SHADING GROUP 1 FACE 56
  0
3DFACE
  8
Fixed Shading
 62
  9
 10
        2.11212
 20
       -0.09713
 30
       -0.91269
 11
        1.91212
 21
       -0.10318
 31
       -0.56633
 12
        1.91212
 22
       -0.50311
 32
       -0.57331
 13
        2.11212
 23
       -0.49707
 33
       -0.91967
999
Fixed Shading:SHADING GROUP 1 FACE 57
  0
3DFACE
  8
Fixed Shading
 62
  9
 10
        2.10866
 20
       -0.49703
 30
       -0.92167
 11
        2.11212
 21
       -0.09713
 31
       -0.91269
 12
        2.10866
 22
       -0.09709
 32
       -0.91469
 13
        2.10866
 23
       -0.09709
 33
       -0.91469
999
Fixed Shading:Mir-SHADING GROUP 1 FACE 57
  0
3DFACE
  8
Fixed Shading
 62
  9
 10
        2.10866
 20
       -0.09709
 30
       -0.91469
 11
        2.11212
 21
       -0.09713
 31
       -0.91269
 12
        2.10866
 22
       -0.49703
 32
       -0.92167
 13
        2.10866
 23
       -0.49703
 33
       -0.92167
999
Fixed Shading:SHADING GROUP 1 FACE 58
  0
3DFACE
  8
Fixed Shading
 62
  9
 10
        1.90866
 20
       -0.50308
 30
       -0.57531
 11
        2.11212
 21
       -0.49707
 31
       -0.91967
 12
        2.10866
 22
       -0.49703
 32
       -0.92167
 13
        2.10866
 23
       -0.49703
 33
       -0.92167
999
Fixed Shading:Mir-SHADING GROUP 1 FACE 58
  0
3DFACE
  8
Fixed Shading
 62
  9
 10
        2.10866
 20
       -0.49703
 30
       -0.92167
 11
        2.11212
 21
       -0.49707
 31
       -0.91967
 12
        1.90866
 22
       -0.50308
 32
       -0.57531
 13
        1.90866
 23
       -0.50308
 33
       -0.57531
999
Fixed Shading:SHADING GROUP 1 FACE 59
  0
3DFACE
  8
Fixed Shading
 62
  9
 10
        1.90866
 20
       -0.10314
 30
       -0.56833
 11
        1.91212
 21
       -0.50311
 31
       -0.57331
 12
        1.90866
 22
       -0.50308
 32
       -0.57531
 13
        1.90866
 23
       -0.50308
 33
       -0.57531
999
Fixed Shading:Mir-SHADING GROUP 1 FACE 59
  0
3DFACE
  8
Fixed Shading
 62
  9
 10
        1.90866
 20
       -0.50308
 30
       -0.57531
 11
        1.91212
 21
       -0.50311
 31
       -0.57331
 12
        1.90866
 22
       -0.10314
 32
       -0.56833
 13
        1.90866
 23
       -0.10314
 33
       -0.56833
999
Fixed Shading:SHADING GROUP 1 FACE 60
  0
3DFACE
  8
Fixed Shading
 62
  9
 10
        2.10866
 20
       -0.09709
 30
       -0.91469
 11
        1.91212
 21
       -0.10318
 31
       -0.56633
 12
        1.90866
 22
       -0.10314
 32
       -0.56833
 13
        1.90866
 23
       -0.10314
 33
       -0.56833
999
Fixed Shading:Mir-SHADING GROUP 1 FACE 60
  0
3DFACE
  8
Fixed Shading
 62
  9
 10
        1.90866
 20
       -0.10314
 30
       -0.56833
 11
        1.91212
 21
       -0.10318
 31
       -0.56633
 12
        2.10866
 22
       -0.09709
 32
       -0.91469
 13
        2.10866
 23
       -0.09709
 33
       -0.91469
999
Fixed Shading:SHADING GROUP 1 FACE 61
  0
3DFACE
  8
Fixed Shading
 62
  9
 10
        1.60866
 20
       -0.09709
 30
       -0.91469
 11
        1.40866
 21
       -0.10314
 31
       -0.56833
 12
        1.40866
 22
       -0.50308
 32
       -0.57531
 13
        1.60866
 23
       -0.49703
 33
       -0.92167
999
Fixed Shading:Mir-SHADING GROUP 1 FACE 61
  0
3DFACE
  8
Fixed Shading
 62
  9
 10
        1.60866
 20
       -0.49703
 30
       -0.92167
 11
        1.40866
 21
       -0.50308
 31
       -0.57531
 12
        1.40866
 22
       -0.10314
 32
       -0.56833
 13
        1.60866
 23
       -0.09709
 33
       -0.91469
999
Fixed Shading:SHADING GROUP 1 FACE 62
  0
3DFACE
  8
Fixed Shading
 62
  9
 10
        1.61212
 20
       -0.49707
 30
       -0.91967
 11
        1.41212
 21
       -0.50311
 31
       -0.57331
 12
        1.41212
 22
       -0.10318
 32
       -0.56633
 13
        1.61212
 23
       -0.09713
 33
       -0.91269
999
Fixed Shading:Mir-SHADING GROUP 1 FACE 62
  0
3DFACE
  8
Fixed Shading
 62
  9
 10
        1.61212
 20
       -0.09713
 30
       -0.91269
 11
        1.41212
 21
       -0.10318
 31
       -0.56633
 12
        1.41212
 22
       -0.50311
 32
       -0.57331
 13
        1.61212
 23
       -0.49707
 33
       -0.91967
999
Fixed Shading:SHADING GROUP 1 FACE 63
  0
3DFACE
  8
Fixed Shading
 62
  9
 10
        1.60866
 20
       -0.49703
 30
       -0.92167
 11
        1.61212
 21
       -0.09713
 31
       -0.91269
 12
        1.60866
 22
       -0.09709
 32
       -0.91469
 13
        1.60866
 23
       -0.09709
 33
       -0.91469
999
Fixed Shading:Mir-SHADING GROUP 1 FACE 63
  0
3DFACE
  8
Fixed Shading
 62
  9
 10
        1.60866
 20
       -0.09709
 30
       -0.91469
 11
        1.61212
 21
       -0.09713
 31
       -0.91269
 12
        1.60866
 22
       -0.49703
 32
       -0.92167
 13
        1.60866
 23
       -0.49703
 33
       -0.92167
999
Fixed Shading:SHADING GROUP 1 FACE 64
  0
3DFACE
  8
Fixed Shading
 62
  9
 10
        1.40866
 20
       -0.50308
 30
       -0.57531
 11
        1.61212
 21
       -0.49707
 31
       -0.91967
 12
        1.60866
 22
       -0.49703
 32
       -0.92167
 13
        1.60866
 23
       -0.49703
 33
       -0.92167
999
Fixed Shading:Mir-SHADING GROUP 1 FACE 64
  0
3DFACE
  8
Fixed Shading
 62
  9
 10
        1.60866
 20
       -0.49703
 30
       -0.92167
 11
        1.61212
 21
       -0.49707
 31
       -0.91967
 12
        1.40866
 22
       -0.50308
 32
       -0.57531
 13
        1.40866
 23
       -0.50308
 33
       -0.57531
999
Fixed Shading:SHADING GROUP 1 FACE 65
  0
3DFACE
  8
Fixed Shading
 62
  9
 10
        1.40866
 20
       -0.10314
 30
       -0.56833
 11
        1.41212
 21
       -0.50311
 31
       -0.57331
 12
        1.40866
 22
       -0.50308
 32
       -0.57531
 13
        1.40866
 23
       -0.50308
 33
       -0.57531
999
Fixed Shading:Mir-SHADING GROUP 1 FACE 65
  0
3DFACE
  8
Fixed Shading
 62
  9
 10
        1.40866
 20
       -0.50308
 30
       -0.57531
 11
        1.41212
 21
       -0.50311
 31
       -0.57331
 12
        1.40866
 22
       -0.10314
 32
       -0.56833
 13
        1.40866
 23
       -0.10314
 33
       -0.56833
999
Fixed Shading:SHADING GROUP 1 FACE 66
  0
3DFACE
  8
Fixed Shading
 62
  9
 10
        1.60866
 20
       -0.09709
 30
       -0.91469
 11
        1.41212
 21
       -0.10318
 31
       -0.56633
 12
        1.40866
 22
       -0.10314
 32
       -0.56833
 13
        1.40866
 23
       -0.10314
 33
       -0.56833
999
Fixed Shading:Mir-SHADING GROUP 1 FACE 66
  0
3DFACE
  8
Fixed Shading
 62
  9
 10
        1.40866
 20
       -0.10314
 30
       -0.56833
 11
        1.41212
 21
       -0.10318
 31
       -0.56633
 12
        1.60866
 22
       -0.09709
 32
       -0.91469
 13
        1.60866
 23
       -0.09709
 33
       -0.91469
999
Fixed Shading:SHADING GROUP 1 FACE 67
  0
3DFACE
  8
Fixed Shading
 62
  9
 10
        1.10866
 20
       -0.09709
 30
       -0.91469
 11
        0.90866
 21
       -0.10314
 31
       -0.56833
 12
        0.90866
 22
       -0.50308
 32
       -0.57531
 13
        1.10866
 23
       -0.49703
 33
       -0.92167
999
Fixed Shading:Mir-SHADING GROUP 1 FACE 67
  0
3DFACE
  8
Fixed Shading
 62
  9
 10
        1.10866
 20
       -0.49703
 30
       -0.92167
 11
        0.90866
 21
       -0.50308
 31
       -0.57531
 12
        0.90866
 22
       -0.10314
 32
       -0.56833
 13
        1.10866
 23
       -0.09709
 33
       -0.91469
999
Fixed Shading:SHADING GROUP 1 FACE 68
  0
3DFACE
  8
Fixed Shading
 62
  9
 10
        1.11212
 20
       -0.49707
 30
       -0.91967
 11
        0.91212
 21
       -0.50311
 31
       -0.57331
 12
        0.91212
 22
       -0.10318
 32
       -0.56633
 13
        1.11212
 23
       -0.09713
 33
       -0.91269
999
Fixed Shading:Mir-SHADING GROUP 1 FACE 68
  0
3DFACE
  8
Fixed Shading
 62
  9
 10
        1.11212
 20
       -0.09713
 30
       -0.91269
 11
        0.91212
 21
       -0.10318
 31
       -0.56633
 12
        0.91212
 22
       -0.50311
 32
       -0.57331
 13
        1.11212
 23
       -0.49707
 33
       -0.91967
999
Fixed Shading:SHADING GROUP 1 FACE 69
  0
3DFACE
  8
Fixed Shading
 62
  9
 10
        1.10866
 20
       -0.49703
 30
       -0.92167
 11
        1.11212
 21
       -0.09713
 31
       -0.91269
 12
        1.10866
 22
       -0.09709
 32
       -0.91469
 13
        1.10866
 23
       -0.09709
 33
       -0.91469
999
Fixed Shading:Mir-SHADING GROUP 1 FACE 69
  0
3DFACE
  8
Fixed Shading
 62
  9
 10
        1.10866
 20
       -0.09709
 30
       -0.91469
 11
        1.11212
 21
       -0.09713
 31
       -0.91269
 12
        1.10866
 22
       -0.49703
 32
       -0.92167
 13
        1.10866
 23
       -0.49703
 33
       -0.92167
999
Fixed Shading:SHADING GROUP 1 FACE 70
  0
3DFACE
  8
Fixed Shading
 62
  9
 10
        0.90866
 20
       -0.50308
 30
       -0.57531
 11
        1.11212
 21
       -0.49707
 31
       -0.91967
 12
        1.10866
 22
       -0.49703
 32
       -0.92167
 13
        1.10866
 23
       -0.49703
 33
       -0.92167
999
Fixed Shading:Mir-SHADING GROUP 1 FACE 70
  0
3DFACE
  8
Fixed Shading
 62
  9
 10
        1.10866
 20
       -0.49703
 30
       -0.92167
 11
        1.11212
 21
       -0.49707
 31
       -0.91967
 12
        0.90866
 22
       -0.50308
 32
       -0.57531
 13
        0.90866
 23
       -0.50308
 33
       -0.57531
999
Fixed Shading:SHADING GROUP 1 FACE 71
  0
3DFACE
  8
Fixed Shading
 62
  9
 10
        0.90866
 20
       -0.10314
 30
       -0.56833
 11
        0.91212
 21
       -0.50311
 31
       -0.57331
 12
        0.90866
 22
       -0.50308
 32
       -0.57531
 13
        0.90866
 23
       -0.50308
 33
       -0.57531
999
Fixed Shading:Mir-SHADING GROUP 1 FACE 71
  0
3DFACE
  8
Fixed Shading
 62
  9
 10
        0.90866
 20
       -0.50308
 30
       -0.57531
 11
        0.91212
 21
       -0.50311
 31
       -0.57331
 12
        0.90866
 22
       -0.10314
 32
       -0.56833
 13
        0.90866
 23
       -0.10314
 33
       -0.56833
999
Fixed Shading:SHADING GROUP 1 FACE 72
  0
3DFACE
  8
Fixed Shading
 62
  9
 10
        1.10866
 20
       -0.09709
 30
       -0.91469
 11
        0.91212
 21
       -0.10318
 31
       -0.56633
 12
        0.90866
 22
       -0.10314
 32
       -0.56833
 13
        0.90866
 23
       -0.10314
 33
       -0.56833
999
Fixed Shading:Mir-SHADING GROUP 1 FACE 72
  0
3DFACE
  8
Fixed Shading
 62
  9
 10
        0.90866
 20
       -0.10314
 30
       -0.56833
 11
        0.91212
 21
       -0.10318
 31
       -0.56633
 12
        1.10866
 22
       -0.09709
 32
       -0.91469
 13
        1.10866
 23
       -0.09709
 33
       -0.91469
999
Fixed Shading:SHADING GROUP 1 FACE 73
  0
3DFACE
  8
Fixed Shading
 62
  9
 10
        0.60866
 20
       -0.09709
 30
       -0.91469
 11
        0.40866
 21
       -0.10314
 31
       -0.56833
 12
        0.40866
 22
       -0.50308
 32
       -0.57531
 13
        0.60866
 23
       -0.49703
 33
       -0.92167
999
Fixed Shading:Mir-SHADING GROUP 1 FACE 73
  0
3DFACE
  8
Fixed Shading
 62
  9
 10
        0.60866
 20
       -0.49703
 30
       -0.92167
 11
        0.40866
 21
       -0.50308
 31
       -0.57531
 12
        0.40866
 22
       -0.10314
 32
       -0.56833
 13
        0.60866
 23
       -0.09709
 33
       -0.91469
999
Fixed Shading:SHADING GROUP 1 FACE 74
  0
3DFACE
  8
Fixed Shading
 62
  9
 10
        0.61212
 20
       -0.49707
 30
       -0.91967
 11
        0.41212
 21
       -0.50311
 31
       -0.57331
 12
        0.41212
 22
       -0.10318
 32
       -0.56633
 13
        0.61212
 23
       -0.09713
 33
       -0.91269
999
Fixed Shading:Mir-SHADING GROUP 1 FACE 74
  0
3DFACE
  8
Fixed Shading
 62
  9
 10
        0.61212
 20
       -0.09713
 30
       -0.91269
 11
        0.41212
 21
       -0.10318
 31
       -0.56633
 12
        0.41212
 22
       -0.50311
 32
       -0.57331
 13
        0.61212
 23
       -0.49707
 33
       -0.91967
999
Fixed Shading:SHADING GROUP 1 FACE 75
  0
3DFACE
  8
Fixed Shading
 62
  9
 10
        0.60866
 20
       -0.49703
 30
       -0.92167
 11
        0.61212
 21
       -0.09713
 31
       -0.91269
 12
        0.60866
 22
       -0.09709
 32
       -0.91469
 13
        0.60866
 23
       -0.09709
 33
       -0.91469
999
Fixed Shading:Mir-SHADING GROUP 1 FACE 75
  0
3DFACE
  8
Fixed Shading
 62
  9
 10
        0.60866
 20
       -0.09709
 30
       -0.91469
 11
        0.61212
 21
       -0.09713
 31
       -0.91269
 12
        0.60866
 22
       -0.49703
 32
       -0.92167
 13
        0.60866
 23
       -0.49703
 33
       -0.92167
999
Fixed Shading:SHADING GROUP 1 FACE 76
  0
3DFACE
  8
Fixed Shading
 62
  9
 10
        0.40866
 20
       -0.50308
 30
       -0.57531
 11
        0.61212
 21
       -0.49707
 31
       -0.91967
 12
        0.60866
 22
       -0.49703
 32
       -0.92167
 13
        0.60866
 23
       -0.49703
 33
       -0.92167
999
Fixed Shading:Mir-SHADING GROUP 1 FACE 76
  0
3DFACE
  8
Fixed Shading
 62
  9
 10
        0.60866
 20
       -0.49703
 30
       -0.92167
 11
        0.61212
 21
       -0.49707
 31
       -0.91967
 12
        0.40866
 22
       -0.50308
 32
       -0.57531
 13
        0.40866
 23
       -0.50308
 33
       -0.57531
999
Fixed Shading:SHADING GROUP 1 FACE 77
  0
3DFACE
  8
Fixed Shading
 62
  9
 10
        0.40866
 20
       -0.10314
 30
       -0.56833
 11
        0.41212
 21
       -0.50311
 31
       -0.57331
 12
        0.40866
 22
       -0.50308
 32
       -0.57531
 13
        0.40866
 23
       -0.50308
 33
       -0.57531
999
Fixed Shading:Mir-SHADING GROUP 1 FACE 77
  0
3DFACE
  8
Fixed Shading
 62
  9
 10
        0.40866
 20
       -0.50308
 30
       -0.57531
 11
        0.41212
 21
       -0.50311
 31
       -0.57331
 12
        0.40866
 22
       -0.10314
 32
       -0.56833
 13
        0.40866
 23
       -0.10314
 33
       -0.56833
999
Fixed Shading:SHADING GROUP 1 FACE 78
  0
3DFACE
  8
Fixed Shading
 62
  9
 10
        0.60866
 20
       -0.09709
 30
       -0.91469
 11
        0.41212
 21
       -0.10318
 31
       -0.56633
 12
        0.40866
 22
       -0.10314
 32
       -0.56833
 13
        0.40866
 23
       -0.10314
 33
       -0.56833
999
Fixed Shading:Mir-SHADING GROUP 1 FACE 78
  0
3DFACE
  8
Fixed Shading
 62
  9
 10
        0.40866
 20
       -0.10314
 30
       -0.56833
 11
        0.41212
 21
       -0.10318
 31
       -0.56633
 12
        0.60866
 22
       -0.09709
 32
       -0.91469
 13
        0.60866
 23
       -0.09709
 33
       -0.91469
999
Fixed Shading:SHADING GROUP 1 FACE 79
  0
3DFACE
  8
Fixed Shading
 62
  9
 10
        0.10866
 20
       -0.09709
 30
       -0.91469
 11
       -0.09134
 21
       -0.10314
 31
       -0.56833
 12
       -0.09134
 22
       -0.50308
 32
       -0.57531
 13
        0.10866
 23
       -0.49703
 33
       -0.92167
999
Fixed Shading:Mir-SHADING GROUP 1 FACE 79
  0
3DFACE
  8
Fixed Shading
 62
  9
 10
        0.10866
 20
       -0.49703
 30
       -0.92167
 11
       -0.09134
 21
       -0.50308
 31
       -0.57531
 12
       -0.09134
 22
       -0.10314
 32
       -0.56833
 13
        0.10866
 23
       -0.09709
 33
       -0.91469
999
Fixed Shading:SHADING GROUP 1 FACE 80
  0
3DFACE
  8
Fixed Shading
 62
  9
 10
        0.11212
 20
       -0.49707
 30
       -0.91967
 11
       -0.08788
 21
       -0.50311
 31
       -0.57331
 12
       -0.08788
 22
       -0.10318
 32
       -0.56633
 13
        0.11212
 23
       -0.09713
 33
       -0.91269
999
Fixed Shading:Mir-SHADING GROUP 1 FACE 80
  0
3DFACE
  8
Fixed Shading
 62
  9
 10
        0.11212
 20
       -0.09713
 30
       -0.91269
 11
       -0.08788
 21
       -0.10318
 31
       -0.56633
 12
       -0.08788
 22
       -0.50311
 32
       -0.57331
 13
        0.11212
 23
       -0.49707
 33
       -0.91967
999
Fixed Shading:SHADING GROUP 1 FACE 81
  0
3DFACE
  8
Fixed Shading
 62
  9
 10
        0.10866
 20
       -0.49703
 30
       -0.92167
 11
        0.11212
 21
       -0.09713
 31
       -0.91269
 12
        0.10866
 22
       -0.09709
 32
       -0.91469
 13
        0.10866
 23
       -0.09709
 33
       -0.91469
999
Fixed Shading:Mir-SHADING GROUP 1 FACE 81
  0
3DFACE
  8
Fixed Shading
 62
  9
 10
        0.10866
 20
       -0.09709
 30
       -0.91469
 11
        0.11212
 21
       -0.09713
 31
       -0.91269
 12
        0.10866
 22
       -0.49703
 32
       -0.92167
 13
        0.10866
 23
       -0.49703
 33
       -0.92167
999
Fixed Shading:SHADING GROUP 1 FACE 82
  0
3DFACE
  8
Fixed Shading
 62
  9
 10
       -0.09134
 20
       -0.50308
 30
       -0.57531
 11
        0.11212
 21
       -0.49707
 31
       -0.91967
 12
        0.10866
 22
       -0.49703
 32
       -0.92167
 13
        0.10866
 23
       -0.49703
 33
       -0.92167
999
Fixed Shading:Mir-SHADING GROUP 1 FACE 82
  0
3DFACE
  8
Fixed Shading
 62
  9
 10
        0.10866
 20
       -0.49703
 30
       -0.92167
 11
        0.11212
 21
       -0.49707
 31
       -0.91967
 12
       -0.09134
 22
       -0.50308
 32
       -0.57531
 13
       -0.09134
 23
       -0.50308
 33
       -0.57531
999
Fixed Shading:SHADING GROUP 1 FACE 83
  0
3DFACE
  8
Fixed Shading
 62
  9
 10
       -0.09134
 20
       -0.10314
 30
       -0.56833
 11
       -0.08788
 21
       -0.50311
 31
       -0.57331
 12
       -0.09134
 22
       -0.50308
 32
       -0.57531
 13
       -0.09134
 23
       -0.50308
 33
       -0.57531
999
Fixed Shading:Mir-SHADING GROUP 1 FACE 83
  0
3DFACE
  8
Fixed Shading
 62
  9
 10
       -0.09134
 20
       -0.50308
 30
       -0.57531
 11
       -0.08788
 21
       -0.50311
 31
       -0.57331
 12
       -0.09134
 22
       -0.10314
 32
       -0.56833
 13
       -0.09134
 23
       -0.10314
 33
       -0.56833
999
Fixed Shading:SHADING GROUP 1 FACE 84
  0
3DFACE
  8
Fixed Shading
 62
  9
 10
        0.10866
 20
       -0.09709
 30
       -0.91469
 11
       -0.08788
 21
       -0.10318
 31
       -0.56633
 12
       -0.09134
 22
       -0.10314
 32
       -0.56833
 13
       -0.09134
 23
       -0.10314
 33
       -0.56833
999
Fixed Shading:Mir-SHADING GROUP 1 FACE 84
  0
3DFACE
  8
Fixed Shading
 62
  9
 10
       -0.09134
 20
       -0.10314
 30
       -0.56833
 11
       -0.08788
 21
       -0.10318
 31
       -0.56633
 12
        0.10866
 22
       -0.09709
 32
       -0.91469
 13
        0.10866
 23
       -0.09709
 33
       -0.91469
999
Fixed Shading:SHADING GROUP 1 FACE 85
  0
3DFACE
  8
Fixed Shading
 62
  9
 10
       -0.39134
 20
       -0.09709
 30
       -0.91469
 11
       -0.59134
 21
       -0.10314
 31
       -0.56833
 12
       -0.59134
 22
       -0.50308
 32
       -0.57531
 13
       -0.39134
 23
       -0.49703
 33
       -0.92167
999
Fixed Shading:Mir-SHADING GROUP 1 FACE 85
  0
3DFACE
  8
Fixed Shading
 62
  9
 10
       -0.39134
 20
       -0.49703
 30
       -0.92167
 11
       -0.59134
 21
       -0.50308
 31
       -0.57531
 12
       -0.59134
 22
       -0.10314
 32
       -0.56833
 13
       -0.39134
 23
       -0.09709
 33
       -0.91469
999
Fixed Shading:SHADING GROUP 1 FACE 86
  0
3DFACE
  8
Fixed Shading
 62
  9
 10
       -0.38788
 20
       -0.49707
 30
       -0.91967
 11
       -0.58788
 21
       -0.50311
 31
       -0.57331
 12
       -0.58788
 22
       -0.10318
 32
       -0.56633
 13
       -0.38788
 23
       -0.09713
 33
       -0.91269
999
Fixed Shading:Mir-SHADING GROUP 1 FACE 86
  0
3DFACE
  8
Fixed Shading
 62
  9
 10
       -0.38788
 20
       -0.09713
 30
       -0.91269
 11
       -0.58788
 21
       -0.10318
 31
       -0.56633
 12
       -0.58788
 22
       -0.50311
 32
       -0.57331
 13
       -0.38788
 23
       -0.49707
 33
       -0.91967
999
Fixed Shading:SHADING GROUP 1 FACE 87
  0
3DFACE
  8
Fixed Shading
 62
  9
 10
       -0.39134
 20
       -0.49703
 30
       -0.92167
 11
       -0.38788
 21
       -0.09713
 31
       -0.91269
 12
       -0.39134
 22
       -0.09709
 32
       -0.91469
 13
       -0.39134
 23
       -0.09709
 33
       -0.91469
999
Fixed Shading:Mir-SHADING GROUP 1 FACE 87
  0
3DFACE
  8
Fixed Shading
 62
  9
 10
       -0.39134
 20
       -0.09709
 30
       -0.91469
 11
       -0.38788
 21
       -0.09713
 31
       -0.91269
 12
       -0.39134
 22
       -0.49703
 32
       -0.92167
 13
       -0.39134
 23
       -0.49703
 33
       -0.92167
999
Fixed Shading:SHADING GROUP 1 FACE 88
  0
3DFACE
  8
Fixed Shading
 62
  9
 10
       -0.59134
 20
       -0.50308
 30
       -0.57531
 11
       -0.38788
 21
       -0.49707
 31
       -0.91967
 12
       -0.39134
 22
       -0.49703
 32
       -0.92167
 13
       -0.39134
 23
       -0.49703
 33
       -0.92167
999
Fixed Shading:Mir-SHADING GROUP 1 FACE 88
  0
3DFACE
  8
Fixed Shading
 62
  9
 10
       -0.39134
 20
       -0.49703
 30
       -0.92167
 11
       -0.38788
 21
       -0.49707
 31
       -0.91967
 12
       -0.59134
 22
       -0.50308
 32
       -0.57531
 13
       -0.59134
 23
       -0.50308
 33
       -0.57531
999
Fixed Shading:SHADING GROUP 1 FACE 89
  0
3DFACE
  8
Fixed Shading
 62
  9
 10
       -0.59134
 20
       -0.10314
 30
       -0.56833
 11
       -0.58788
 21
       -0.50311
 31
       -0.57331
 12
       -0.59134
 22
       -0.50308
 32
       -0.57531
 13
       -0.59134
 23
       -0.50308
 33
       -0.57531
999
Fixed Shading:Mir-SHADING GROUP 1 FACE 89
  0
3DFACE
  8
Fixed Shading
 62
  9
 10
       -0.59134
 20
       -0.50308
 30
       -0.57531
 11
       -0.58788
 21
       -0.50311
 31
       -0.57331
 12
       -0.59134
 22
       -0.10314
 32
       -0.56833
 13
       -0.59134
 23
       -0.10314
 33
       -0.56833
999
Fixed Shading:SHADING GROUP 1 FACE 90
  0
3DFACE
  8
Fixed Shading
 62
  9
 10
       -0.39134
 20
       -0.09709
 30
       -0.91469
 11
       -0.58788
 21
       -0.10318
 31
       -0.56633
 12
       -0.59134
 22
       -0.10314
 32
       -0.56833
 13
       -0.59134
 23
       -0.10314
 33
       -0.56833
999
Fixed Shading:Mir-SHADING GROUP 1 FACE 90
  0
3DFACE
  8
Fixed Shading
 62
  9
 10
       -0.59134
 20
       -0.10314
 30
       -0.56833
 11
       -0.58788
 21
       -0.10318
 31
       -0.56633
 12
       -0.39134
 22
       -0.09709
 32
       -0.91469
 13
       -0.39134
 23
       -0.09709
 33
       -0.91469
999
Fixed Shading:SHADING GROUP 1 FACE 91
  0
3DFACE
  8
Fixed Shading
 62
  9
 10
       -0.89134
 20
       -0.09709
 30
       -0.91469
 11
       -1.09134
 21
       -0.10314
 31
       -0.56833
 12
       -1.09134
 22
       -0.50308
 32
       -0.57531
 13
       -0.89134
 23
       -0.49703
 33
       -0.92167
999
Fixed Shading:Mir-SHADING GROUP 1 FACE 91
  0
3DFACE
  8
Fixed Shading
 62
  9
 10
       -0.89134
 20
       -0.49703
 30
       -0.92167
 11
       -1.09134
 21
       -0.50308
 31
       -0.57531
 12
       -1.09134
 22
       -0.10314
 32
       -0.56833
 13
       -0.89134
 23
       -0.09709
 33
       -0.91469
999
Fixed Shading:SHADING GROUP 1 FACE 92
  0
3DFACE
  8
Fixed Shading
 62
  9
 10
       -0.88788
 20
       -0.49707
 30
       -0.91967
 11
       -1.08788
 21
       -0.50311
 31
       -0.57331
 12
       -1.08788
 22
       -0.10318
 32
       -0.56633
 13
       -0.88788
 23
       -0.09713
 33
       -0.91269
999
Fixed Shading:Mir-SHADING GROUP 1 FACE 92
  0
3DFACE
  8
Fixed Shading
 62
  9
 10
       -0.88788
 20
       -0.09713
 30
       -0.91269
 11
       -1.08788
 21
       -0.10318
 31
       -0.56633
 12
       -1.08788
 22
       -0.50311
 32
       -0.57331
 13
       -0.88788
 23
       -0.49707
 33
       -0.91967
999
Fixed Shading:SHADING GROUP 1 FACE 93
  0
3DFACE
  8
Fixed Shading
 62
  9
 10
       -0.89134
 20
       -0.49703
 30
       -0.92167
 11
       -0.88788
 21
       -0.09713
 31
       -0.91269
 12
       -0.89134
 22
       -0.09709
 32
       -0.91469
 13
       -0.89134
 23
       -0.09709
 33
       -0.91469
999
Fixed Shading:Mir-SHADING GROUP 1 FACE 93
  0
3DFACE
  8
Fixed Shading
 62
  9
 10
       -0.89134
 20
       -0.09709
 30
       -0.91469
 11
       -0.88788
 21
       -0.09713
 31
       -0.91269
 12
       -0.89134
 22
       -0.49703
 32
       -0.92167
 13
       -0.89134
 23
       -0.49703
 33
       -0.92167
999
Fixed Shading:SHADING GROUP 1 FACE 94
  0
3DFACE
  8
Fixed Shading
 62
  9
 10
       -1.09134
 20
       -0.50308
 30
       -0.57531
 11
       -0.88788
 21
       -0.49707
 31
       -0.91967
 12
       -0.89134
 22
       -0.49703
 32
       -0.92167
 13
       -0.89134
 23
       -0.49703
 33
       -0.92167
999
Fixed Shading:Mir-SHADING GROUP 1 FACE 94
  0
3DFACE
  8
Fixed Shading
 62
  9
 10
       -0.89134
 20
       -0.49703
 30
       -0.92167
 11
       -0.88788
 21
       -0.49707
 31
       -0.91967
 12
       -1.09134
 22
       -0.50308
 32
       -0.57531
 13
       -1.09134
 23
       -0.50308
 33
       -0.57531
999
Fixed Shading:SHADING GROUP 1 FACE 95
  0
3DFACE
  8
Fixed Shading
 62
  9
 10
       -1.09134
 20
       -0.10314
 30
       -0.56833
 11
       -1.08788
 21
       -0.50311
 31
       -0.57331
 12
       -1.09134
 22
       -0.50308
 32
       -0.57531
 13
       -1.09134
 23
       -0.50308
 33
       -0.57531
999
Fixed Shading:Mir-SHADING GROUP 1 FACE 95
  0
3DFACE
  8
Fixed Shading
 62
  9
 10
       -1.09134
 20
       -0.50308
 30
       -0.57531
 11
       -1.08788
 21
       -0.50311
 31
       -0.57331
 12
       -1.09134
 22
       -0.10314
 32
       -0.56833
 13
       -1.09134
 23
       -0.10314
 33
       -0.56833
999
Fixed Shading:SHADING GROUP 1 FACE 96
  0
3DFACE
  8
Fixed Shading
 62
  9
 10
       -0.89134
 20
       -0.09709
 30
       -0.91469
 11
       -1.08788
 21
       -0.10318
 31
       -0.56633
 12
       -1.09134
 22
       -0.10314
 32
       -0.56833
 13
       -1.09134
 23
       -0.10314
 33
       -0.56833
999
Fixed Shading:Mir-SHADING GROUP 1 FACE 96
  0
3DFACE
  8
Fixed Shading
 62
  9
 10
       -1.09134
 20
       -0.10314
 30
       -0.56833
 11
       -1.08788
 21
       -0.10318
 31
       -0.56633
 12
       -0.89134
 22
       -0.09709
 32
       -0.91469
 13
       -0.89134
 23
       -0.09709
 33
       -0.91469
999
Fixed Shading:SHADING GROUP 1 FACE 97
  0
3DFACE
  8
Fixed Shading
 62
  9
 10
       -1.39134
 20
       -0.09709
 30
       -0.91469
 11
       -1.59134
 21
       -0.10314
 31
       -0.56833
 12
       -1.59134
 22
       -0.50308
 32
       -0.57531
 13
       -1.39134
 23
       -0.49703
 33
       -0.92167
999
Fixed Shading:Mir-SHADING GROUP 1 FACE 97
  0
3DFACE
  8
Fixed Shading
 62
  9
 10
       -1.39134
 20
       -0.49703
 30
       -0.92167
 11
       -1.59134
 21
       -0.50308
 31
       -0.57531
 12
       -1.59134
 22
       -0.10314
 32
       -0.56833
 13
       -1.39134
 23
       -0.09709
 33
       -0.91469
999
Fixed Shading:SHADING GROUP 1 FACE 98
  0
3DFACE
  8
Fixed Shading
 62
  9
 10
       -1.38788
 20
       -0.49707
 30
       -0.91967
 11
       -1.58788
 21
       -0.50311
 31
       -0.57331
 12
       -1.58788
 22
       -0.10318
 32
       -0.56633
 13
       -1.38788
 23
       -0.09713
 33
       -0.91269
999
Fixed Shading:Mir-SHADING GROUP 1 FACE 98
  0
3DFACE
  8
Fixed Shading
 62
  9
 10
       -1.38788
 20
       -0.09713
 30
       -0.91269
 11
       -1.58788
 21
       -0.10318
 31
       -0.56633
 12
       -1.58788
 22
       -0.50311
 32
       -0.57331
 13
       -1.38788
 23
       -0.49707
 33
       -0.91967
999
Fixed Shading:SHADING GROUP 1 FACE 99
  0
3DFACE
  8
Fixed Shading
 62
  9
 10
       -1.39134
 20
       -0.49703
 30
       -0.92167
 11
       -1.38788
 21
       -0.09713
 31
       -0.91269
 12
       -1.39134
 22
       -0.09709
 32
       -0.91469
 13
       -1.39134
 23
       -0.09709
 33
       -0.91469
999
Fixed Shading:Mir-SHADING GROUP 1 FACE 99
  0
3DFACE
  8
Fixed Shading
 62
  9
 10
       -1.39134
 20
       -0.09709
 30
       -0.91469
 11
       -1.38788
 21
       -0.09713
 31
       -0.91269
 12
       -1.39134
 22
       -0.49703
 32
       -0.92167
 13
       -1.39134
 23
       -0.49703
 33
       -0.92167
999
Fixed Shading:SHADING GROUP 1 FACE 100
  0
3DFACE
  8
Fixed Shading
 62
  9
 10
       -1.59134
 20
       -0.50308
 30
       -0.57531
 11
       -1.38788
 21
       -0.49707
 31
       -0.91967
 12
       -1.39134
 22
       -0.49703
 32
       -0.92167
 13
       -1.39134
 23
       -0.49703
 33
       -0.92167
999
Fixed Shading:Mir-SHADING GROUP 1 FACE 100
  0
3DFACE
  8
Fixed Shading
 62
  9
 10
       -1.39134
 20
       -0.49703
 30
       -0.92167
 11
       -1.38788
 21
       -0.49707
 31
       -0.91967
 12
       -1.59134
 22
       -0.50308
 32
       -0.57531
 13
       -1.59134
 23
       -0.50308
 33
       -0.57531
999
Fixed Shading:SHADING GROUP 1 FACE 101
  0
3DFACE
  8
Fixed Shading
 62
  9
 10
       -1.59134
 20
       -0.10314
 30
       -0.56833
 11
       -1.58788
 21
       -0.50311
 31
       -0.57331
 12
       -1.59134
 22
       -0.50308
 32
       -0.57531
 13
       -1.59134
 23
       -0.50308
 33
       -0.57531
999
Fixed Shading:Mir-SHADING GROUP 1 FACE 101
  0
3DFACE
  8
Fixed Shading
 62
  9
 10
       -1.59134
 20
       -0.50308
 30
       -0.57531
 11
       -1.58788
 21
       -0.50311
 31
       -0.57331
 12
       -1.59134
 22
       -0.10314
 32
       -0.56833
 13
       -1.59134
 23
       -0.10314
 33
       -0.56833
999
Fixed Shading:SHADING GROUP 1 FACE 102
  0
3DFACE
  8
Fixed Shading
 62
  9
 10
       -1.39134
 20
       -0.09709
 30
       -0.91469
 11
       -1.58788
 21
       -0.10318
 31
       -0.56633
 12
       -1.59134
 22
       -0.10314
 32
       -0.56833
 13
       -1.59134
 23
       -0.10314
 33
       -0.56833
999
Fixed Shading:Mir-SHADING GROUP 1 FACE 102
  0
3DFACE
  8
Fixed Shading
 62
  9
 10
       -1.59134
 20
       -0.10314
 30
       -0.56833
 11
       -1.58788
 21
       -0.10318
 31
       -0.56633
 12
       -1.39134
 22
       -0.09709
 32
       -0.91469
 13
       -1.39134
 23
       -0.09709
 33
       -0.91469
999
Fixed Shading:SHADING GROUP 1 FACE 103
  0
3DFACE
  8
Fixed Shading
 62
  9
 10
       -1.89134
 20
       -0.09709
 30
       -0.91469
 11
       -2.09134
 21
       -0.10314
 31
       -0.56833
 12
       -2.09134
 22
       -0.50308
 32
       -0.57531
 13
       -1.89134
 23
       -0.49703
 33
       -0.92167
999
Fixed Shading:Mir-SHADING GROUP 1 FACE 103
  0
3DFACE
  8
Fixed Shading
 62
  9
 10
       -1.89134
 20
       -0.49703
 30
       -0.92167
 11
       -2.09134
 21
       -0.50308
 31
       -0.57531
 12
       -2.09134
 22
       -0.10314
 32
       -0.56833
 13
       -1.89134
 23
       -0.09709
 33
       -0.91469
999
Fixed Shading:SHADING GROUP 1 FACE 104
  0
3DFACE
  8
Fixed Shading
 62
  9
 10
       -1.88788
 20
       -0.49707
 30
       -0.91967
 11
       -2.08788
 21
       -0.50311
 31
       -0.57331
 12
       -2.08788
 22
       -0.10318
 32
       -0.56633
 13
       -1.88788
 23
       -0.09713
 33
       -0.91269
999
Fixed Shading:Mir-SHADING GROUP 1 FACE 104
  0
3DFACE
  8
Fixed Shading
 62
  9
 10
       -1.88788
 20
       -0.09713
 30
       -0.91269
 11
       -2.08788
 21
       -0.10318
 31
       -0.56633
 12
       -2.08788
 22
       -0.50311
 32
       -0.57331
 13
       -1.88788
 23
       -0.49707
 33
       -0.91967
999
Fixed Shading:SHADING GROUP 1 FACE 105
  0
3DFACE
  8
Fixed Shading
 62
  9
 10
       -1.89134
 20
       -0.49703
 30
       -0.92167
 11
       -1.88788
 21
       -0.09713
 31
       -0.91269
 12
       -1.89134
 22
       -0.09709
 32
       -0.91469
 13
       -1.89134
 23
       -0.09709
 33
       -0.91469
999
Fixed Shading:Mir-SHADING GROUP 1 FACE 105
  0
3DFACE
  8
Fixed Shading
 62
  9
 10
       -1.89134
 20
       -0.09709
 30
       -0.91469
 11
       -1.88788
 21
       -0.09713
 31
       -0.91269
 12
       -1.89134
 22
       -0.49703
 32
       -0.92167
 13
       -1.89134
 23
       -0.49703
 33
       -0.92167
999
Fixed Shading:SHADING GROUP 1 FACE 106
  0
3DFACE
  8
Fixed Shading
 62
  9
 10
       -2.09134
 20
       -0.50308
 30
       -0.57531
 11
       -1.88788
 21
       -0.49707
 31
       -0.91967
 12
       -1.89134
 22
       -0.49703
 32
       -0.92167
 13
       -1.89134
 23
       -0.49703
 33
       -0.92167
999
Fixed Shading:Mir-SHADING GROUP 1 FACE 106
  0
3DFACE
  8
Fixed Shading
 62
  9
 10
       -1.89134
 20
       -0.49703
 30
       -0.92167
 11
       -1.88788
 21
       -0.49707
 31
       -0.91967
 12
       -2.09134
 22
       -0.50308
 32
       -0.57531
 13
       -2.09134
 23
       -0.50308
 33
       -0.57531
999
Fixed Shading:SHADING GROUP 1 FACE 107
  0
3DFACE
  8
Fixed Shading
 62
  9
 10
       -2.09134
 20
       -0.10314
 30
       -0.56833
 11
       -2.08788
 21
       -0.50311
 31
       -0.57331
 12
       -2.09134
 22
       -0.50308
 32
       -0.57531
 13
       -2.09134
 23
       -0.50308
 33
       -0.57531
999
Fixed Shading:Mir-SHADING GROUP 1 FACE 107
  0
3DFACE
  8
Fixed Shading
 62
  9
 10
       -2.09134
 20
       -0.50308
 30
       -0.57531
 11
       -2.08788
 21
       -0.50311
 31
       -0.57331
 12
       -2.09134
 22
       -0.10314
 32
       -0.56833
 13
       -2.09134
 23
       -0.10314
 33
       -0.56833
999
Fixed Shading:SHADING GROUP 1 FACE 108
  0
3DFACE
  8
Fixed Shading
 62
  9
 10
       -1.89134
 20
       -0.09709
 30
       -0.91469
 11
       -2.08788
 21
       -0.10318
 31
       -0.56633
 12
       -2.09134
 22
       -0.10314
 32
       -0.56833
 13
       -2.09134
 23
       -0.10314
 33
       -0.56833
999
Fixed Shading:Mir-SHADING GROUP 1 FACE 108
  0
3DFACE
  8
Fixed Shading
 62
  9
 10
       -2.09134
 20
       -0.10314
 30
       -0.56833
 11
       -2.08788
 21
       -0.10318
 31
       -0.56633
 12
       -1.89134
 22
       -0.09709
 32
       -0.91469
 13
       -1.89134
 23
       -0.09709
 33
       -0.91469
999
Fixed Shading:SHADING GROUP 1 FACE 109
  0
3DFACE
  8
Fixed Shading
 62
  9
 10
        2.10866
 20
       -0.12833
 30
       -0.05297
 11
        1.90866
 21
       -0.47469
 31
       -0.04692
 12
        1.90866
 22
       -0.48167
 32
       -0.44686
 13
        2.10866
 23
       -0.13531
 33
       -0.45291
999
Fixed Shading:Mir-SHADING GROUP 1 FACE 109
  0
3DFACE
  8
Fixed Shading
 62
  9
 10
        2.10866
 20
       -0.13531
 30
       -0.45291
 11
        1.90866
 21
       -0.48167
 31
       -0.44686
 12
        1.90866
 22
       -0.47469
 32
       -0.04692
 13
        2.10866
 23
       -0.12833
 33
       -0.05297
999
Fixed Shading:SHADING GROUP 1 FACE 110
  0
3DFACE
  8
Fixed Shading
 62
  9
 10
        2.11212
 20
       -0.13731
 30
       -0.45287
 11
        1.91212
 21
       -0.48367
 31
       -0.44682
 12
        1.91212
 22
       -0.47669
 32
       -0.04689
 13
        2.11212
 23
       -0.13033
 33
       -0.05293
999
Fixed Shading:Mir-SHADING GROUP 1 FACE 110
  0
3DFACE
  8
Fixed Shading
 62
  9
 10
        2.11212
 20
       -0.13033
 30
       -0.05293
 11
        1.91212
 21
       -0.47669
 31
       -0.04689
 12
        1.91212
 22
       -0.48367
 32
       -0.44682
 13
        2.11212
 23
       -0.13731
 33
       -0.45287
999
Fixed Shading:SHADING GROUP 1 FACE 111
  0
3DFACE
  8
Fixed Shading
 62
  9
 10
        2.10866
 20
       -0.13531
 30
       -0.45291
 11
        2.11212
 21
       -0.13033
 31
       -0.05293
 12
        2.10866
 22
       -0.12833
 32
       -0.05297
 13
        2.10866
 23
       -0.12833
 33
       -0.05297
999
Fixed Shading:Mir-SHADING GROUP 1 FACE 111
  0
3DFACE
  8
Fixed Shading
 62
  9
 10
        2.10866
 20
       -0.12833
 30
       -0.05297
 11
        2.11212
 21
       -0.13033
 31
       -0.05293
 12
        2.10866
 22
       -0.13531
 32
       -0.45291
 13
        2.10866
 23
       -0.13531
 33
       -0.45291
999
Fixed Shading:SHADING GROUP 1 FACE 112
  0
3DFACE
  8
Fixed Shading
 62
  9
 10
        1.90866
 20
       -0.48167
 30
       -0.44686
 11
        2.11212
 21
       -0.13731
 31
       -0.45287
 12
        2.10866
 22
       -0.13531
 32
       -0.45291
 13
        2.10866
 23
       -0.13531
 33
       -0.45291
999
Fixed Shading:Mir-SHADING GROUP 1 FACE 112
  0
3DFACE
  8
Fixed Shading
 62
  9
 10
        2.10866
 20
       -0.13531
 30
       -0.45291
 11
        2.11212
 21
       -0.13731
 31
       -0.45287
 12
        1.90866
 22
       -0.48167
 32
       -0.44686
 13
        1.90866
 23
       -0.48167
 33
       -0.44686
999
Fixed Shading:SHADING GROUP 1 FACE 113
  0
3DFACE
  8
Fixed Shading
 62
  9
 10
        1.90866
 20
       -0.47469
 30
       -0.04692
 11
        1.91212
 21
       -0.48367
 31
       -0.44682
 12
        1.90866
 22
       -0.48167
 32
       -0.44686
 13
        1.90866
 23
       -0.48167
 33
       -0.44686
999
Fixed Shading:Mir-SHADING GROUP 1 FACE 113
  0
3DFACE
  8
Fixed Shading
 62
  9
 10
        1.90866
 20
       -0.48167
 30
       -0.44686
 11
        1.91212
 21
       -0.48367
 31
       -0.44682
 12
        1.90866
 22
       -0.47469
 32
       -0.04692
 13
        1.90866
 23
       -0.47469
 33
       -0.04692
999
Fixed Shading:SHADING GROUP 1 FACE 114
  0
3DFACE
  8
Fixed Shading
 62
  9
 10
        2.10866
 20
       -0.12833
 30
       -0.05297
 11
        1.91212
 21
       -0.47669
 31
       -0.04689
 12
        1.90866
 22
       -0.47469
 32
       -0.04692
 13
        1.90866
 23
       -0.47469
 33
       -0.04692
999
Fixed Shading:Mir-SHADING GROUP 1 FACE 114
  0
3DFACE
  8
Fixed Shading
 62
  9
 10
        1.90866
 20
       -0.47469
 30
       -0.04692
 11
        1.91212
 21
       -0.47669
 31
       -0.04689
 12
        2.10866
 22
       -0.12833
 32
       -0.05297
 13
        2.10866
 23
       -0.12833
 33
       -0.05297
999
Fixed Shading:SHADING GROUP 1 FACE 115
  0
3DFACE
  8
Fixed Shading
 62
  9
 10
        1.60866
 20
       -0.12833
 30
       -0.05297
 11
        1.40866
 21
       -0.47469
 31
       -0.04692
 12
        1.40866
 22
       -0.48167
 32
       -0.44686
 13
        1.60866
 23
       -0.13531
 33
       -0.45291
999
Fixed Shading:Mir-SHADING GROUP 1 FACE 115
  0
3DFACE
  8
Fixed Shading
 62
  9
 10
        1.60866
 20
       -0.13531
 30
       -0.45291
 11
        1.40866
 21
       -0.48167
 31
       -0.44686
 12
        1.40866
 22
       -0.47469
 32
       -0.04692
 13
        1.60866
 23
       -0.12833
 33
       -0.05297
999
Fixed Shading:SHADING GROUP 1 FACE 116
  0
3DFACE
  8
Fixed Shading
 62
  9
 10
        1.61212
 20
       -0.13731
 30
       -0.45287
 11
        1.41212
 21
       -0.48367
 31
       -0.44682
 12
        1.41212
 22
       -0.47669
 32
       -0.04689
 13
        1.61212
 23
       -0.13033
 33
       -0.05293
999
Fixed Shading:Mir-SHADING GROUP 1 FACE 116
  0
3DFACE
  8
Fixed Shading
 62
  9
 10
        1.61212
 20
       -0.13033
 30
       -0.05293
 11
        1.41212
 21
       -0.47669
 31
       -0.04689
 12
        1.41212
 22
       -0.48367
 32
       -0.44682
 13
        1.61212
 23
       -0.13731
 33
       -0.45287
999
Fixed Shading:SHADING GROUP 1 FACE 117
  0
3DFACE
  8
Fixed Shading
 62
  9
 10
        1.60866
 20
       -0.13531
 30
       -0.45291
 11
        1.61212
 21
       -0.13033
 31
       -0.05293
 12
        1.60866
 22
       -0.12833
 32
       -0.05297
 13
        1.60866
 23
       -0.12833
 33
       -0.05297
999
Fixed Shading:Mir-SHADING GROUP 1 FACE 117
  0
3DFACE
  8
Fixed Shading
 62
  9
 10
        1.60866
 20
       -0.12833
 30
       -0.05297
 11
        1.61212
 21
       -0.13033
 31
       -0.05293
 12
        1.60866
 22
       -0.13531
 32
       -0.45291
 13
        1.60866
 23
       -0.13531
 33
       -0.45291
999
Fixed Shading:SHADING GROUP 1 FACE 118
  0
3DFACE
  8
Fixed Shading
 62
  9
 10
        1.40866
 20
       -0.48167
 30
       -0.44686
 11
        1.61212
 21
       -0.13731
 31
       -0.45287
 12
        1.60866
 22
       -0.13531
 32
       -0.45291
 13
        1.60866
 23
       -0.13531
 33
       -0.45291
999
Fixed Shading:Mir-SHADING GROUP 1 FACE 118
  0
3DFACE
  8
Fixed Shading
 62
  9
 10
        1.60866
 20
       -0.13531
 30
       -0.45291
 11
        1.61212
 21
       -0.13731
 31
       -0.45287
 12
        1.40866
 22
       -0.48167
 32
       -0.44686
 13
        1.40866
 23
       -0.48167
 33
       -0.44686
999
Fixed Shading:SHADING GROUP 1 FACE 119
  0
3DFACE
  8
Fixed Shading
 62
  9
 10
        1.40866
 20
       -0.47469
 30
       -0.04692
 11
        1.41212
 21
       -0.48367
 31
       -0.44682
 12
        1.40866
 22
       -0.48167
 32
       -0.44686
 13
        1.40866
 23
       -0.48167
 33
       -0.44686
999
Fixed Shading:Mir-SHADING GROUP 1 FACE 119
  0
3DFACE
  8
Fixed Shading
 62
  9
 10
        1.40866
 20
       -0.48167
 30
       -0.44686
 11
        1.41212
 21
       -0.48367
 31
       -0.44682
 12
        1.40866
 22
       -0.47469
 32
       -0.04692
 13
        1.40866
 23
       -0.47469
 33
       -0.04692
999
Fixed Shading:SHADING GROUP 1 FACE 120
  0
3DFACE
  8
Fixed Shading
 62
  9
 10
        1.60866
 20
       -0.12833
 30
       -0.05297
 11
        1.41212
 21
       -0.47669
 31
       -0.04689
 12
        1.40866
 22
       -0.47469
 32
       -0.04692
 13
        1.40866
 23
       -0.47469
 33
       -0.04692
999
Fixed Shading:Mir-SHADING GROUP 1 FACE 120
  0
3DFACE
  8
Fixed Shading
 62
  9
 10
        1.40866
 20
       -0.47469
 30
       -0.04692
 11
        1.41212
 21
       -0.47669
 31
       -0.04689
 12
        1.60866
 22
       -0.12833
 32
       -0.05297
 13
        1.60866
 23
       -0.12833
 33
       -0.05297
999
Fixed Shading:SHADING GROUP 1 FACE 121
  0
3DFACE
  8
Fixed Shading
 62
  9
 10
        1.10866
 20
       -0.12833
 30
       -0.05297
 11
        0.90866
 21
       -0.47469
 31
       -0.04692
 12
        0.90866
 22
       -0.48167
 32
       -0.44686
 13
        1.10866
 23
       -0.13531
 33
       -0.45291
999
Fixed Shading:Mir-SHADING GROUP 1 FACE 121
  0
3DFACE
  8
Fixed Shading
 62
  9
 10
        1.10866
 20
       -0.13531
 30
       -0.45291
 11
        0.90866
 21
       -0.48167
 31
       -0.44686
 12
        0.90866
 22
       -0.47469
 32
       -0.04692
 13
[...]
 32
        1.44703
 13
        0.10866
 23
       -0.12833
 33
        1.44703
999
Fixed Shading:Mir-SHADING GROUP 1 FACE 297
  0
3DFACE
  8
Fixed Shading
 62
  9
 10
        0.10866
 20
       -0.12833
 30
        1.44703
 11
        0.11212
 21
       -0.13033
 31
        1.44707
 12
        0.10866
 22
       -0.13531
 32
        1.04709
 13
        0.10866
 23
       -0.13531
 33
        1.04709
999
Fixed Shading:SHADING GROUP 1 FACE 298
  0
3DFACE
  8
Fixed Shading
 62
  9
 10
       -0.09134
 20
       -0.48167
 30
        1.05314
 11
        0.11212
 21
       -0.13731
 31
        1.04713
 12
        0.10866
 22
       -0.13531
 32
        1.04709
 13
        0.10866
 23
       -0.13531
 33
        1.04709
999
Fixed Shading:Mir-SHADING GROUP 1 FACE 298
  0
3DFACE
  8
Fixed Shading
 62
  9
 10
        0.10866
 20
       -0.13531
 30
        1.04709
 11
        0.11212
 21
       -0.13731
 31
        1.04713
 12
       -0.09134
 22
       -0.48167
 32
        1.05314
 13
       -0.09134
 23
       -0.48167
 33
        1.05314
999
Fixed Shading:SHADING GROUP 1 FACE 299
  0
3DFACE
  8
Fixed Shading
 62
  9
 10
       -0.09134
 20
       -0.47469
 30
        1.45308
 11
       -0.08788
 21
       -0.48367
 31
        1.05318
 12
       -0.09134
 22
       -0.48167
 32
        1.05314
 13
       -0.09134
 23
       -0.48167
 33
        1.05314
999
Fixed Shading:Mir-SHADING GROUP 1 FACE 299
  0
3DFACE
  8
Fixed Shading
 62
  9
 10
       -0.09134
 20
       -0.48167
 30
        1.05314
 11
       -0.08788
 21
       -0.48367
 31
        1.05318
 12
       -0.09134
 22
       -0.47469
 32
        1.45308
 13
       -0.09134
 23
       -0.47469
 33
        1.45308
999
Fixed Shading:SHADING GROUP 1 FACE 300
  0
3DFACE
  8
Fixed Shading
 62
  9
 10
        0.10866
 20
       -0.12833
 30
        1.44703
 11
       -0.08788
 21
       -0.47669
 31
        1.45311
 12
       -0.09134
 22
       -0.47469
 32
        1.45308
 13
       -0.09134
 23
       -0.47469
 33
        1.45308
999
Fixed Shading:Mir-SHADING GROUP 1 FACE 300
  0
3DFACE
  8
Fixed Shading
 62
  9
 10
       -0.09134
 20
       -0.47469
 30
        1.45308
 11
       -0.08788
 21
       -0.47669
 31
        1.45311
 12
        0.10866
 22
       -0.12833
 32
        1.44703
 13
        0.10866
 23
       -0.12833
 33
        1.44703
999
Fixed Shading:SHADING GROUP 1 FACE 301
  0
3DFACE
  8
Fixed Shading
 62
  9
 10
       -0.39134
 20
       -0.12833
 30
        1.44703
 11
       -0.59134
 21
       -0.47469
 31
        1.45308
 12
       -0.59134
 22
       -0.48167
 32
        1.05314
 13
       -0.39134
 23
       -0.13531
 33
        1.04709
999
Fixed Shading:Mir-SHADING GROUP 1 FACE 301
  0
3DFACE
  8
Fixed Shading
 62
  9
 10
       -0.39134
 20
       -0.13531
 30
        1.04709
 11
       -0.59134
 21
       -0.48167
 31
        1.05314
 12
       -0.59134
 22
       -0.47469
 32
        1.45308
 13
       -0.39134
 23
       -0.12833
 33
        1.44703
999
Fixed Shading:SHADING GROUP 1 FACE 302
  0
3DFACE
  8
Fixed Shading
 62
  9
 10
       -0.38788
 20
       -0.13731
 30
        1.04713
 11
       -0.58788
 21
       -0.48367
 31
        1.05318
 12
       -0.58788
 22
       -0.47669
 32
        1.45311
 13
       -0.38788
 23
       -0.13033
 33
        1.44707
999
Fixed Shading:Mir-SHADING GROUP 1 FACE 302
  0
3DFACE
  8
Fixed Shading
 62
  9
 10
       -0.38788
 20
       -0.13033
 30
        1.44707
 11
       -0.58788
 21
       -0.47669
 31
        1.45311
 12
       -0.58788
 22
       -0.48367
 32
        1.05318
 13
       -0.38788
 23
       -0.13731
 33
        1.04713
999
Fixed Shading:SHADING GROUP 1 FACE 303
  0
3DFACE
  8
Fixed Shading
 62
  9
 10
       -0.39134
 20
       -0.13531
 30
        1.04709
 11
       -0.38788
 21
       -0.13033
 31
        1.44707
 12
       -0.39134
 22
       -0.12833
 32
        1.44703
 13
       -0.39134
 23
       -0.12833
 33
        1.44703
999
Fixed Shading:Mir-SHADING GROUP 1 FACE 303
  0
3DFACE
  8
Fixed Shading
 62
  9
 10
       -0.39134
 20
       -0.12833
 30
        1.44703
 11
       -0.38788
 21
       -0.13033
 31
        1.44707
 12
       -0.39134
 22
       -0.13531
 32
        1.04709
 13
       -0.39134
 23
       -0.13531
 33
        1.04709
999
Fixed Shading:SHADING GROUP 1 FACE 304
  0
3DFACE
  8
Fixed Shading
 62
  9
 10
       -0.59134
 20
       -0.48167
 30
        1.05314
 11
       -0.38788
 21
       -0.13731
 31
        1.04713
 12
       -0.39134
 22
       -0.13531
 32
        1.04709
 13
       -0.39134
 23
       -0.13531
 33
        1.04709
999
Fixed Shading:Mir-SHADING GROUP 1 FACE 304
  0
3DFACE
  8
Fixed Shading
 62
  9
 10
       -0.39134
 20
       -0.13531
 30
        1.04709
 11
       -0.38788
 21
       -0.13731
 31
        1.04713
 12
       -0.59134
 22
       -0.48167
 32
        1.05314
 13
       -0.59134
 23
       -0.48167
 33
        1.05314
999
Fixed Shading:SHADING GROUP 1 FACE 305
  0
3DFACE
  8
Fixed Shading
 62
  9
 10
       -0.59134
 20
       -0.47469
 30
        1.45308
 11
       -0.58788
 21
       -0.48367
 31
        1.05318
 12
       -0.59134
 22
       -0.48167
 32
        1.05314
 13
       -0.59134
 23
       -0.48167
 33
        1.05314
999
Fixed Shading:Mir-SHADING GROUP 1 FACE 305
  0
3DFACE
  8
Fixed Shading
 62
  9
 10
       -0.59134
 20
       -0.48167
 30
        1.05314
 11
       -0.58788
 21
       -0.48367
 31
        1.05318
 12
       -0.59134
 22
       -0.47469
 32
        1.45308
 13
       -0.59134
 23
       -0.47469
 33
        1.45308
999
Fixed Shading:SHADING GROUP 1 FACE 306
  0
3DFACE
  8
Fixed Shading
 62
  9
 10
       -0.39134
 20
       -0.12833
 30
        1.44703
 11
       -0.58788
 21
       -0.47669
 31
        1.45311
 12
       -0.59134
 22
       -0.47469
 32
        1.45308
 13
       -0.59134
 23
       -0.47469
 33
        1.45308
999
Fixed Shading:Mir-SHADING GROUP 1 FACE 306
  0
3DFACE
  8
Fixed Shading
 62
  9
 10
       -0.59134
 20
       -0.47469
 30
        1.45308
 11
       -0.58788
 21
       -0.47669
 31
        1.45311
 12
       -0.39134
 22
       -0.12833
 32
        1.44703
 13
       -0.39134
 23
       -0.12833
 33
        1.44703
999
Fixed Shading:SHADING GROUP 1 FACE 307
  0
3DFACE
  8
Fixed Shading
 62
  9
 10
       -0.89134
 20
       -0.12833
 30
        1.44703
 11
       -1.09134
 21
       -0.47469
 31
        1.45308
 12
       -1.09134
 22
       -0.48167
 32
        1.05314
 13
       -0.89134
 23
       -0.13531
 33
        1.04709
999
Fixed Shading:Mir-SHADING GROUP 1 FACE 307
  0
3DFACE
  8
Fixed Shading
 62
  9
 10
       -0.89134
 20
       -0.13531
 30
        1.04709
 11
       -1.09134
 21
       -0.48167
 31
        1.05314
 12
       -1.09134
 22
       -0.47469
 32
        1.45308
 13
       -0.89134
 23
       -0.12833
 33
        1.44703
999
Fixed Shading:SHADING GROUP 1 FACE 308
  0
3DFACE
  8
Fixed Shading
 62
  9
 10
       -0.88788
 20
       -0.13731
 30
        1.04713
 11
       -1.08788
 21
       -0.48367
 31
        1.05318
 12
       -1.08788
 22
       -0.47669
 32
        1.45311
 13
       -0.88788
 23
       -0.13033
 33
        1.44707
999
Fixed Shading:Mir-SHADING GROUP 1 FACE 308
  0
3DFACE
  8
Fixed Shading
 62
  9
 10
       -0.88788
 20
       -0.13033
 30
        1.44707
 11
       -1.08788
 21
       -0.47669
 31
        1.45311
 12
       -1.08788
 22
       -0.48367
 32
        1.05318
 13
       -0.88788
 23
       -0.13731
 33
        1.04713
999
Fixed Shading:SHADING GROUP 1 FACE 309
  0
3DFACE
  8
Fixed Shading
 62
  9
 10
       -0.89134
 20
       -0.13531
 30
        1.04709
 11
       -0.88788
 21
       -0.13033
 31
        1.44707
 12
       -0.89134
 22
       -0.12833
 32
        1.44703
 13
       -0.89134
 23
       -0.12833
 33
        1.44703
999
Fixed Shading:Mir-SHADING GROUP 1 FACE 309
  0
3DFACE
  8
Fixed Shading
 62
  9
 10
       -0.89134
 20
       -0.12833
 30
        1.44703
 11
       -0.88788
 21
       -0.13033
 31
        1.44707
 12
       -0.89134
 22
       -0.13531
 32
        1.04709
 13
       -0.89134
 23
       -0.13531
 33
        1.04709
999
Fixed Shading:SHADING GROUP 1 FACE 310
  0
3DFACE
  8
Fixed Shading
 62
  9
 10
       -1.09134
 20
       -0.48167
 30
        1.05314
 11
       -0.88788
 21
       -0.13731
 31
        1.04713
 12
       -0.89134
 22
       -0.13531
 32
        1.04709
 13
       -0.89134
 23
       -0.13531
 33
        1.04709
999
Fixed Shading:Mir-SHADING GROUP 1 FACE 310
  0
3DFACE
  8
Fixed Shading
 62
  9
 10
       -0.89134
 20
       -0.13531
 30
        1.04709
 11
       -0.88788
 21
       -0.13731
 31
        1.04713
 12
       -1.09134
 22
       -0.48167
 32
        1.05314
 13
       -1.09134
 23
       -0.48167
 33
        1.05314
999
Fixed Shading:SHADING GROUP 1 FACE 311
  0
3DFACE
  8
Fixed Shading
 62
  9
 10
       -1.09134
 20
       -0.47469
 30
        1.45308
 11
       -1.08788
 21
       -0.48367
 31
        1.05318
 12
       -1.09134
 22
       -0.48167
 32
        1.05314
 13
       -1.09134
 23
       -0.48167
 33
        1.05314
999
Fixed Shading:Mir-SHADING GROUP 1 FACE 311
  0
3DFACE
  8
Fixed Shading
 62
  9
 10
       -1.09134
 20
       -0.48167
 30
        1.05314
 11
       -1.08788
 21
       -0.48367
 31
        1.05318
 12
       -1.09134
 22
       -0.47469
 32
        1.45308
 13
       -1.09134
 23
       -0.47469
 33
        1.45308
999
Fixed Shading:SHADING GROUP 1 FACE 312
  0
3DFACE
  8
Fixed Shading
 62
  9
 10
       -0.89134
 20
       -0.12833
 30
        1.44703
 11
       -1.08788
 21
       -0.47669
 31
        1.45311
 12
       -1.09134
 22
       -0.47469
 32
        1.45308
 13
       -1.09134
 23
       -0.47469
 33
        1.45308
999
Fixed Shading:Mir-SHADING GROUP 1 FACE 312
  0
3DFACE
  8
Fixed Shading
 62
  9
 10
       -1.09134
 20
       -0.47469
 30
        1.45308
 11
       -1.08788
 21
       -0.47669
 31
        1.45311
 12
       -0.89134
 22
       -0.12833
 32
        1.44703
 13
       -0.89134
 23
       -0.12833
 33
        1.44703
999
Fixed Shading:SHADING GROUP 1 FACE 313
  0
3DFACE
  8
Fixed Shading
 62
  9
 10
       -1.39134
 20
       -0.12833
 30
        1.44703
 11
       -1.59134
 21
       -0.47469
 31
        1.45308
 12
       -1.59134
 22
       -0.48167
 32
        1.05314
 13
       -1.39134
 23
       -0.13531
 33
        1.04709
999
Fixed Shading:Mir-SHADING GROUP 1 FACE 313
  0
3DFACE
  8
Fixed Shading
 62
  9
 10
       -1.39134
 20
       -0.13531
 30
        1.04709
 11
       -1.59134
 21
       -0.48167
 31
        1.05314
 12
       -1.59134
 22
       -0.47469
 32
        1.45308
 13
       -1.39134
 23
       -0.12833
 33
        1.44703
999
Fixed Shading:SHADING GROUP 1 FACE 314
  0
3DFACE
  8
Fixed Shading
 62
  9
 10
       -1.38788
 20
       -0.13731
 30
        1.04713
 11
       -1.58788
 21
       -0.48367
 31
        1.05318
 12
       -1.58788
 22
       -0.47669
 32
        1.45311
 13
       -1.38788
 23
       -0.13033
 33
        1.44707
999
Fixed Shading:Mir-SHADING GROUP 1 FACE 314
  0
3DFACE
  8
Fixed Shading
 62
  9
 10
       -1.38788
 20
       -0.13033
 30
        1.44707
 11
       -1.58788
 21
       -0.47669
 31
        1.45311
 12
       -1.58788
 22
       -0.48367
 32
        1.05318
 13
       -1.38788
 23
       -0.13731
 33
        1.04713
999
Fixed Shading:SHADING GROUP 1 FACE 315
  0
3DFACE
  8
Fixed Shading
 62
  9
 10
       -1.39134
 20
       -0.13531
 30
        1.04709
 11
       -1.38788
 21
       -0.13033
 31
        1.44707
 12
       -1.39134
 22
       -0.12833
 32
        1.44703
 13
       -1.39134
 23
       -0.12833
 33
        1.44703
999
Fixed Shading:Mir-SHADING GROUP 1 FACE 315
  0
3DFACE
  8
Fixed Shading
 62
  9
 10
       -1.39134
 20
       -0.12833
 30
        1.44703
 11
       -1.38788
 21
       -0.13033
 31
        1.44707
 12
       -1.39134
 22
       -0.13531
 32
        1.04709
 13
       -1.39134
 23
       -0.13531
 33
        1.04709
999
Fixed Shading:SHADING GROUP 1 FACE 316
  0
3DFACE
  8
Fixed Shading
 62
  9
 10
       -1.59134
 20
       -0.48167
 30
        1.05314
 11
       -1.38788
 21
       -0.13731
 31
        1.04713
 12
       -1.39134
 22
       -0.13531
 32
        1.04709
 13
       -1.39134
 23
       -0.13531
 33
        1.04709
999
Fixed Shading:Mir-SHADING GROUP 1 FACE 316
  0
3DFACE
  8
Fixed Shading
 62
  9
 10
       -1.39134
 20
       -0.13531
 30
        1.04709
 11
       -1.38788
 21
       -0.13731
 31
        1.04713
 12
       -1.59134
 22
       -0.48167
 32
        1.05314
 13
       -1.59134
 23
       -0.48167
 33
        1.05314
999
Fixed Shading:SHADING GROUP 1 FACE 317
  0
3DFACE
  8
Fixed Shading
 62
  9
 10
       -1.59134
 20
       -0.47469
 30
        1.45308
 11
       -1.58788
 21
       -0.48367
 31
        1.05318
 12
       -1.59134
 22
       -0.48167
 32
        1.05314
 13
       -1.59134
 23
       -0.48167
 33
        1.05314
999
Fixed Shading:Mir-SHADING GROUP 1 FACE 317
  0
3DFACE
  8
Fixed Shading
 62
  9
 10
       -1.59134
 20
       -0.48167
 30
        1.05314
 11
       -1.58788
 21
       -0.48367
 31
        1.05318
 12
       -1.59134
 22
       -0.47469
 32
        1.45308
 13
       -1.59134
 23
       -0.47469
 33
        1.45308
999
Fixed Shading:SHADING GROUP 1 FACE 318
  0
3DFACE
  8
Fixed Shading
 62
  9
 10
       -1.39134
 20
       -0.12833
 30
        1.44703
 11
       -1.58788
 21
       -0.47669
 31
        1.45311
 12
       -1.59134
 22
       -0.47469
 32
        1.45308
 13
       -1.59134
 23
       -0.47469
 33
        1.45308
999
Fixed Shading:Mir-SHADING GROUP 1 FACE 318
  0
3DFACE
  8
Fixed Shading
 62
  9
 10
       -1.59134
 20
       -0.47469
 30
        1.45308
 11
       -1.58788
 21
       -0.47669
 31
        1.45311
 12
       -1.39134
 22
       -0.12833
 32
        1.44703
 13
       -1.39134
 23
       -0.12833
 33
        1.44703
999
Fixed Shading:SHADING GROUP 1 FACE 319
  0
3DFACE
  8
Fixed Shading
 62
  9
 10
       -1.89134
 20
       -0.12833
 30
        1.44703
 11
       -2.09134
 21
       -0.47469
 31
        1.45308
 12
       -2.09134
 22
       -0.48167
 32
        1.05314
 13
       -1.89134
 23
       -0.13531
 33
        1.04709
999
Fixed Shading:Mir-SHADING GROUP 1 FACE 319
  0
3DFACE
  8
Fixed Shading
 62
  9
 10
       -1.89134
 20
       -0.13531
 30
        1.04709
 11
       -2.09134
 21
       -0.48167
 31
        1.05314
 12
       -2.09134
 22
       -0.47469
 32
        1.45308
 13
       -1.89134
 23
       -0.12833
 33
        1.44703
999
Fixed Shading:SHADING GROUP 1 FACE 320
  0
3DFACE
  8
Fixed Shading
 62
  9
 10
       -1.88788
 20
       -0.13731
 30
        1.04713
 11
       -2.08788
 21
       -0.48367
 31
        1.05318
 12
       -2.08788
 22
       -0.47669
 32
        1.45311
 13
       -1.88788
 23
       -0.13033
 33
        1.44707
999
Fixed Shading:Mir-SHADING GROUP 1 FACE 320
  0
3DFACE
  8
Fixed Shading
 62
  9
 10
       -1.88788
 20
       -0.13033
 30
        1.44707
 11
       -2.08788
 21
       -0.47669
 31
        1.45311
 12
       -2.08788
 22
       -0.48367
 32
        1.05318
 13
       -1.88788
 23
       -0.13731
 33
        1.04713
999
Fixed Shading:SHADING GROUP 1 FACE 321
  0
3DFACE
  8
Fixed Shading
 62
  9
 10
       -1.89134
 20
       -0.13531
 30
        1.04709
 11
       -1.88788
 21
       -0.13033
 31
        1.44707
 12
       -1.89134
 22
       -0.12833
 32
        1.44703
 13
       -1.89134
 23
       -0.12833
 33
        1.44703
999
Fixed Shading:Mir-SHADING GROUP 1 FACE 321
  0
3DFACE
  8
Fixed Shading
 62
  9
 10
       -1.89134
 20
       -0.12833
 30
        1.44703
 11
       -1.88788
 21
       -0.13033
 31
        1.44707
 12
       -1.89134
 22
       -0.13531
 32
        1.04709
 13
       -1.89134
 23
       -0.13531
 33
        1.04709
999
Fixed Shading:SHADING GROUP 1 FACE 322
  0
3DFACE
  8
Fixed Shading
 62
  9
 10
       -2.09134
 20
       -0.48167
 30
        1.05314
 11
       -1.88788
 21
       -0.13731
 31
        1.04713
 12
       -1.89134
 22
       -0.13531
 32
        1.04709
 13
       -1.89134
 23
       -0.13531
 33
        1.04709
999
Fixed Shading:Mir-SHADING GROUP 1 FACE 322
  0
3DFACE
  8
Fixed Shading
 62
  9
 10
       -1.89134
 20
       -0.13531
 30
        1.04709
 11
       -1.88788
 21
       -0.13731
 31
        1.04713
 12
       -2.09134
 22
       -0.48167
 32
        1.05314
 13
       -2.09134
 23
       -0.48167
 33
        1.05314
999
Fixed Shading:SHADING GROUP 1 FACE 323
  0
3DFACE
  8
Fixed Shading
 62
  9
 10
       -2.09134
 20
       -0.47469
 30
        1.45308
 11
       -2.08788
 21
       -0.48367
 31
        1.05318
 12
       -2.09134
 22
       -0.48167
 32
        1.05314
 13
       -2.09134
 23
       -0.48167
 33
        1.05314
999
Fixed Shading:Mir-SHADING GROUP 1 FACE 323
  0
3DFACE
  8
Fixed Shading
 62
  9
 10
       -2.09134
 20
       -0.48167
 30
        1.05314
 11
       -2.08788
 21
       -0.48367
 31
        1.05318
 12
       -2.09134
 22
       -0.47469
 32
        1.45308
 13
       -2.09134
 23
       -0.47469
 33
        1.45308
999
Fixed Shading:SHADING GROUP 1 FACE 324
  0
3DFACE
  8
Fixed Shading
 62
  9
 10
       -1.89134
 20
       -0.12833
 30
        1.44703
 11
       -2.08788
 21
       -0.47669
 31
        1.45311
 12
       -2.09134
 22
       -0.47469
 32
        1.45308
 13
       -2.09134
 23
       -0.47469
 33
        1.45308
999
Fixed Shading:Mir-SHADING GROUP 1 FACE 324
  0
3DFACE
  8
Fixed Shading
 62
  9
 10
       -2.09134
 20
       -0.47469
 30
        1.45308
 11
       -2.08788
 21
       -0.47669
 31
        1.45311
 12
       -1.89134
 22
       -0.12833
 32
        1.44703
 13
       -1.89134
 23
       -0.12833
 33
        1.44703
999
ZONE1:ZONE1_FACE_1
  0
3DFACE
  8
ZONE1
 62
 43
 10
        2.45000
 20
        7.00000
 30
        1.55000
 11
        2.45000
 21
        7.00000
 31
       -1.55000
 12
       -2.45000
 22
        7.00000
 32
       -1.55000
 13
       -2.45000
 23
        7.00000
 33
        1.55000
999
ZONE1:ZONE1_FACE_2
  0
3DFACE
  8
ZONE1
 62
 43
 10
        2.45000
 20
        0.00000
 30
        1.55000
 11
        2.45000
 21
        0.00000
 31
       -1.55000
 12
        2.45000
 22
        7.00000
 32
       -1.55000
 13
        2.45000
 23
        7.00000
 33
        1.55000
999
ZONE1:ZONE1_FACE_3
  0
3DFACE
  8
ZONE1
 62
 43
 10
       -2.45000
 20
        7.00000
 30
        1.55000
 11
       -2.45000
 21
        7.00000
 31
       -1.55000
 12
       -2.45000
 22
        0.00000
 32
       -1.55000
 13
       -2.45000
 23
        0.00000
 33
        1.55000
999
ZONE1:ZONE1_FACE_6
  0
3DFACE
  8
ZONE1
 62
 43
 10
       -2.45000
 20
        0.00000
 30
        1.55000
 11
       -2.45000
 21
        0.00000
 31
       -1.55000
 12
        2.45000
 22
        0.00000
 32
       -1.55000
 13
        2.45000
 23
        0.00000
 33
        1.55000
999
ZONE1:ZONE1_FACE_6_WINDOW_1
  0
3DFACE
  8
ZONE1
 62
143
 10
       -2.25000
 20
        0.00000
 30
        1.50000
 11
       -2.25000
 21
        0.00000
 31
       -1.50000
 12
        2.25000
 22
        0.00000
 32
       -1.50000
 13
        2.25000
 23
        0.00000
 33
        1.50000
999
ZONE1:ZONE1_FACE_5
  0
3DFACE
  8
ZONE1
 62
  8
 10
        2.45000
 20
        7.00000
 30
       -1.55000
 11
        2.45000
 21
        0.00000
 31
       -1.55000
 12
       -2.45000
 22
        0.00000
 32
       -1.55000
 13
       -2.45000
 23
        7.00000
 33
       -1.55000
999
ZONE1:ZONE1_FACE_4
  0
3DFACE
  8
ZONE1
 62
 15
 10
       -2.45000
 20
        7.00000
 30
        1.55000
 11
       -2.45000
 21
        0.00000
 31
        1.55000
 12
        2.45000
 22
        0.00000
 32
        1.55000
 13
        2.45000
 23
        7.00000
 33
        1.55000
999
ZONE1:DayRefPt:1
  0
CIRCLE
  8
ZONE1
 62
 10
 10
        0.00000
 20
        3.50000
 30
       -0.75000
 40
        0.20000
  0
ENDSEC
  0
EOF
