  0
SECTION
  2
ENTITIES
999
DXF created from EnergyPlus
999
Program Version,EnergyPlus-Windows-OMP-32 7.2.0.006, YMD=2014.05.13 19:02
999
Polygon Action,ThickPolyline
999
Color Scheme,Default
999
Text - True North
  0
TEXT
  8
1
  6
Continuous
 62
  3
 10
      -13.45000
 20
        2.49807
 30
        0.10000
 40
 .25
  1
True North
 41
 0.0
  7
MONOTXT
210
0.0
220
0.0
230
1.0
999
Text - Building Title
  0
TEXT
  8
1
  6
Continuous
 62
  3
 10
      -16.45000
 20
       -1.50193
 30
        0.10000
 40
 .4
  1
Building - BUILDING
 41
 0.0
  7
MONOTXT
210
0.0
220
0.0
230
1.0
999
North Arrow Stem
  0
3DFACE
  8
1
 62
  3
 10
      -12.45000
 20
        2.49807
 30
        0.10000
 11
      -12.45000
 21
        2.49807
 31
        0.00000
 12
      -12.45000
 22
       -0.50193
 32
        0.00000
 13
      -12.45000
 23
       -0.50193
 33
        0.10000
999
North Arrow Head 1
  0
3DFACE
  8
1
 62
  3
 10
      -12.45000
 20
        2.49807
 30
        0.10000
 11
      -12.45000
 21
        2.49807
 31
        0.00000
 12
      -12.95000
 22
        1.63205
 32
        0.00000
 13
      -12.95000
 23
        1.63205
 33
        0.10000
999
North Arrow Head 2
  0
3DFACE
  8
1
 62
  3
 10
      -12.45000
 20
        2.49807
 30
        0.10000
 11
      -12.45000
 21
        2.49807
 31
        0.00000
 12
      -11.95000
 22
        1.63205
 32
        0.00000
 13
      -11.95000
 23
        1.63205
 33
        0.10000
999
North Arrow Side 1
  0
3DFACE
  8
1
 62
  3
 10
      -12.95000
 20
        3.99807
 30
        0.10000
 11
      -12.95000
 21
        3.99807
 31
        0.00000
 12
      -12.95000
 22
        2.99807
 32
        0.00000
 13
      -12.95000
 23
        2.99807
 33
        0.10000
999
North Arrow Side 2
  0
3DFACE
  8
1
 62
  3
 10
      -12.95000
 20
        3.99807
 30
        0.10000
 11
      -12.95000
 21
        3.99807
 31
        0.00000
 12
      -11.95000
 22
        2.99807
 32
        0.00000
 13
      -11.95000
 23
        2.99807
 33
        0.10000
999
North Arrow Side 3
  0
3DFACE
  8
1
 62
  3
 10
      -11.95000
 20
        3.99807
 30
        0.10000
 11
      -11.95000
 21
        3.99807
 31
        0.00000
 12
      -11.95000
 22
        2.99807
 32
        0.00000
 13
      -11.95000
 23
        2.99807
 33
        0.10000
999
Zone Names
999
Zone=1:ZONE1
999
Fixed Shading:SHADING GROUP 1 FACE 1
  0
3DFACE
  8
Fixed Shading
 62
  9
 10
        2.17821
 20
       -0.09844
 30
       -1.33784
 11
        1.83179
 21
       -0.10193
 31
       -1.13787
 12
        1.83179
 22
       -0.50187
 32
       -1.14485
 13
        2.17821
 23
       -0.49838
 33
       -1.34482
999
Fixed Shading:Mir-SHADING GROUP 1 FACE 1
  0
3DFACE
  8
Fixed Shading
 62
  9
 10
        2.17821
 20
       -0.49838
 30
       -1.34482
 11
        1.83179
 21
       -0.50187
 31
       -1.14485
 12
        1.83179
 22
       -0.10193
 32
       -1.13787
 13
        2.17821
 23
       -0.09844
 33
       -1.33784
999
Fixed Shading:SHADING GROUP 1 FACE 2
  0
3DFACE
  8
Fixed Shading
 62
  9
 10
        2.18021
 20
       -0.49844
 30
       -1.34135
 11
        1.83379
 21
       -0.50193
 31
       -1.14138
 12
        1.83379
 22
       -0.10199
 32
       -1.13440
 13
        2.18021
 23
       -0.09850
 33
       -1.33437
999
Fixed Shading:Mir-SHADING GROUP 1 FACE 2
  0
3DFACE
  8
Fixed Shading
 62
  9
 10
        2.18021
 20
       -0.09850
 30
       -1.33437
 11
        1.83379
 21
       -0.10199
 31
       -1.13440
 12
        1.83379
 22
       -0.50193
 32
       -1.14138
 13
        2.18021
 23
       -0.49844
 33
       -1.34135
999
Fixed Shading:SHADING GROUP 1 FACE 3
  0
3DFACE
  8
Fixed Shading
 62
  9
 10
        2.17821
 20
       -0.49838
 30
       -1.34482
 11
        2.18021
 21
       -0.09850
 31
       -1.33437
 12
        2.17821
 22
       -0.09844
 32
       -1.33784
 13
        2.17821
 23
       -0.09844
 33
       -1.33784
999
Fixed Shading:Mir-SHADING GROUP 1 FACE 3
  0
3DFACE
  8
Fixed Shading
 62
  9
 10
        2.17821
 20
       -0.09844
 30
       -1.33784
 11
        2.18021
 21
       -0.09850
 31
       -1.33437
 12
        2.17821
 22
       -0.49838
 32
       -1.34482
 13
        2.17821
 23
       -0.49838
 33
       -1.34482
999
Fixed Shading:SHADING GROUP 1 FACE 4
  0
3DFACE
  8
Fixed Shading
 62
  9
 10
        1.83179
 20
       -0.50187
 30
       -1.14485
 11
        2.18021
 21
       -0.49844
 31
       -1.34135
 12
        2.17821
 22
       -0.49838
 32
       -1.34482
 13
        2.17821
 23
       -0.49838
 33
       -1.34482
999
Fixed Shading:Mir-SHADING GROUP 1 FACE 4
  0
3DFACE
  8
Fixed Shading
 62
  9
 10
        2.17821
 20
       -0.49838
 30
       -1.34482
 11
        2.18021
 21
       -0.49844
 31
       -1.34135
 12
        1.83179
 22
       -0.50187
 32
       -1.14485
 13
        1.83179
 23
       -0.50187
 33
       -1.14485
999
Fixed Shading:SHADING GROUP 1 FACE 5
  0
3DFACE
  8
Fixed Shading
 62
  9
 10
        1.83179
 20
       -0.10193
 30
       -1.13787
 11
        1.83379
 21
       -0.50193
 31
       -1.14138
 12
        1.83179
 22
       -0.50187
 32
       -1.14485
 13
        1.83179
 23
       -0.50187
 33
       -1.14485
999
Fixed Shading:Mir-SHADING GROUP 1 FACE 5
  0
3DFACE
  8
Fixed Shading
 62
  9
 10
        1.83179
 20
       -0.50187
 30
       -1.14485
 11
        1.83379
 21
       -0.50193
 31
       -1.14138
 12
        1.83179
 22
       -0.10193
 32
       -1.13787
 13
        1.83179
 23
       -0.10193
 33
       -1.13787
999
Fixed Shading:SHADING GROUP 1 FACE 6
  0
3DFACE
  8
Fixed Shading
 62
  9
 10
        2.17821
 20
       -0.09844
 30
       -1.33784
 11
        1.83379
 21
       -0.10199
 31
       -1.13440
 12
        1.83179
 22
       -0.10193
 32
       -1.13787
 13
        1.83179
 23
       -0.10193
 33
       -1.13787
999
Fixed Shading:Mir-SHADING GROUP 1 FACE 6
  0
3DFACE
  8
Fixed Shading
 62
  9
 10
        1.83179
 20
       -0.10193
 30
       -1.13787
 11
        1.83379
 21
       -0.10199
 31
       -1.13440
 12
        2.17821
 22
       -0.09844
 32
       -1.33784
 13
        2.17821
 23
       -0.09844
 33
       -1.33784
999
Fixed Shading:SHADING GROUP 1 FACE 7
  0
3DFACE
  8
Fixed Shading
 62
  9
 10
        1.67821
 20
       -0.09844
 30
       -1.33784
 11
        1.33179
 21
       -0.10193
 31
       -1.13787
 12
        1.33179
 22
       -0.50187
 32
       -1.14485
 13
        1.67821
 23
       -0.49838
 33
       -1.34482
999
Fixed Shading:Mir-SHADING GROUP 1 FACE 7
  0
3DFACE
  8
Fixed Shading
 62
  9
 10
        1.67821
 20
       -0.49838
 30
       -1.34482
 11
        1.33179
 21
       -0.50187
 31
       -1.14485
 12
        1.33179
 22
       -0.10193
 32
       -1.13787
 13
        1.67821
 23
       -0.09844
 33
       -1.33784
999
Fixed Shading:SHADING GROUP 1 FACE 8
  0
3DFACE
  8
Fixed Shading
 62
  9
 10
        1.68021
 20
       -0.49844
 30
       -1.34135
 11
        1.33379
 21
       -0.50193
 31
       -1.14138
 12
        1.33379
 22
       -0.10199
 32
       -1.13440
 13
        1.68021
 23
       -0.09850
 33
       -1.33437
999
Fixed Shading:Mir-SHADING GROUP 1 FACE 8
  0
3DFACE
  8
Fixed Shading
 62
  9
 10
        1.68021
 20
       -0.09850
 30
       -1.33437
 11
        1.33379
 21
       -0.10199
 31
       -1.13440
 12
        1.33379
 22
       -0.50193
 32
       -1.14138
 13
        1.68021
 23
       -0.49844
 33
       -1.34135
999
Fixed Shading:SHADING GROUP 1 FACE 9
  0
3DFACE
  8
Fixed Shading
 62
  9
 10
        1.67821
 20
       -0.49838
 30
       -1.34482
 11
        1.68021
 21
       -0.09850
 31
       -1.33437
 12
        1.67821
 22
       -0.09844
 32
       -1.33784
 13
        1.67821
 23
       -0.09844
 33
       -1.33784
999
Fixed Shading:Mir-SHADING GROUP 1 FACE 9
  0
3DFACE
  8
Fixed Shading
 62
  9
 10
        1.67821
 20
       -0.09844
 30
       -1.33784
 11
        1.68021
 21
       -0.09850
 31
       -1.33437
 12
        1.67821
 22
       -0.49838
 32
       -1.34482
 13
        1.67821
 23
       -0.49838
 33
       -1.34482
999
Fixed Shading:SHADING GROUP 1 FACE 10
  0
3DFACE
  8
Fixed Shading
 62
  9
 10
        1.33179
 20
       -0.50187
 30
       -1.14485
 11
        1.68021
 21
       -0.49844
 31
       -1.34135
 12
        1.67821
 22
       -0.49838
 32
       -1.34482
 13
        1.67821
 23
       -0.49838
 33
       -1.34482
999
Fixed Shading:Mir-SHADING GROUP 1 FACE 10
  0
3DFACE
  8
Fixed Shading
 62
  9
 10
        1.67821
 20
       -0.49838
 30
       -1.34482
 11
        1.68021
 21
       -0.49844
 31
       -1.34135
 12
        1.33179
 22
       -0.50187
 32
       -1.14485
 13
        1.33179
 23
       -0.50187
 33
       -1.14485
999
Fixed Shading:SHADING GROUP 1 FACE 11
  0
3DFACE
  8
Fixed Shading
 62
  9
 10
        1.33179
 20
       -0.10193
 30
       -1.13787
 11
        1.33379
 21
       -0.50193
 31
       -1.14138
 12
        1.33179
 22
       -0.50187
 32
       -1.14485
 13
        1.33179
 23
       -0.50187
 33
       -1.14485
999
Fixed Shading:Mir-SHADING GROUP 1 FACE 11
  0
3DFACE
  8
Fixed Shading
 62
  9
 10
        1.33179
 20
       -0.50187
 30
       -1.14485
 11
        1.33379
 21
       -0.50193
 31
       -1.14138
 12
        1.33179
 22
       -0.10193
 32
       -1.13787
 13
        1.33179
 23
       -0.10193
 33
       -1.13787
999
Fixed Shading:SHADING GROUP 1 FACE 12
  0
3DFACE
  8
Fixed Shading
 62
  9
 10
        1.67821
 20
       -0.09844
 30
       -1.33784
 11
        1.33379
 21
       -0.10199
 31
       -1.13440
 12
        1.33179
 22
       -0.10193
 32
       -1.13787
 13
        1.33179
 23
       -0.10193
 33
       -1.13787
999
Fixed Shading:Mir-SHADING GROUP 1 FACE 12
  0
3DFACE
  8
Fixed Shading
 62
  9
 10
        1.33179
 20
       -0.10193
 30
       -1.13787
 11
        1.33379
 21
       -0.10199
 31
       -1.13440
 12
        1.67821
 22
       -0.09844
 32
       -1.33784
 13
        1.67821
 23
       -0.09844
 33
       -1.33784
999
Fixed Shading:SHADING GROUP 1 FACE 13
  0
3DFACE
  8
Fixed Shading
 62
  9
 10
        1.17821
 20
       -0.09844
 30
       -1.33784
 11
        0.83179
 21
       -0.10193
 31
       -1.13787
 12
        0.83179
 22
       -0.50187
 32
       -1.14485
 13
        1.17821
 23
       -0.49838
 33
       -1.34482
999
Fixed Shading:Mir-SHADING GROUP 1 FACE 13
  0
3DFACE
  8
Fixed Shading
 62
  9
 10
        1.17821
 20
       -0.49838
 30
       -1.34482
 11
        0.83179
 21
       -0.50187
 31
       -1.14485
 12
        0.83179
 22
       -0.10193
 32
       -1.13787
 13
        1.17821
 23
       -0.09844
 33
       -1.33784
999
Fixed Shading:SHADING GROUP 1 FACE 14
  0
3DFACE
  8
Fixed Shading
 62
  9
 10
        1.18021
 20
       -0.49844
 30
       -1.34135
 11
        0.83379
 21
       -0.50193
 31
       -1.14138
 12
        0.83379
 22
       -0.10199
 32
       -1.13440
 13
        1.18021
 23
       -0.09850
 33
       -1.33437
999
Fixed Shading:Mir-SHADING GROUP 1 FACE 14
  0
3DFACE
  8
Fixed Shading
 62
  9
 10
        1.18021
 20
       -0.09850
 30
       -1.33437
 11
        0.83379
 21
       -0.10199
 31
       -1.13440
 12
        0.83379
 22
       -0.50193
 32
       -1.14138
 13
        1.18021
 23
       -0.49844
 33
       -1.34135
999
Fixed Shading:SHADING GROUP 1 FACE 15
  0
3DFACE
  8
Fixed Shading
 62
  9
 10
        1.17821
 20
       -0.49838
 30
       -1.34482
 11
        1.18021
 21
       -0.09850
 31
       -1.33437
 12
        1.17821
 22
       -0.09844
 32
       -1.33784
 13
        1.17821
 23
       -0.09844
 33
       -1.33784
999
Fixed Shading:Mir-SHADING GROUP 1 FACE 15
  0
3DFACE
  8
Fixed Shading
 62
  9
 10
        1.17821
 20
       -0.09844
 30
       -1.33784
 11
        1.18021
 21
       -0.09850
 31
       -1.33437
 12
        1.17821
 22
       -0.49838
 32
       -1.34482
 13
        1.17821
 23
       -0.49838
 33
       -1.34482
999
Fixed Shading:SHADING GROUP 1 FACE 16
  0
3DFACE
  8
Fixed Shading
 62
  9
 10
        0.83179
 20
       -0.50187
 30
       -1.14485
 11
        1.18021
 21
       -0.49844
 31
       -1.34135
 12
        1.17821
 22
       -0.49838
 32
       -1.34482
 13
        1.17821
 23
       -0.49838
 33
       -1.34482
999
Fixed Shading:Mir-SHADING GROUP 1 FACE 16
  0
3DFACE
  8
Fixed Shading
 62
  9
 10
        1.17821
 20
       -0.49838
 30
       -1.34482
 11
        1.18021
 21
       -0.49844
 31
       -1.34135
 12
        0.83179
 22
       -0.50187
 32
       -1.14485
 13
        0.83179
 23
       -0.50187
 33
       -1.14485
999
Fixed Shading:SHADING GROUP 1 FACE 17
  0
3DFACE
  8
Fixed Shading
 62
  9
 10
        0.83179
 20
       -0.10193
 30
       -1.13787
 11
        0.83379
 21
       -0.50193
 31
       -1.14138
 12
        0.83179
 22
       -0.50187
 32
       -1.14485
 13
        0.83179
 23
       -0.50187
 33
       -1.14485
999
Fixed Shading:Mir-SHADING GROUP 1 FACE 17
  0
3DFACE
  8
Fixed Shading
 62
  9
 10
        0.83179
 20
       -0.50187
 30
       -1.14485
 11
        0.83379
 21
       -0.50193
 31
       -1.14138
 12
        0.83179
 22
       -0.10193
 32
       -1.13787
 13
        0.83179
 23
       -0.10193
 33
       -1.13787
999
Fixed Shading:SHADING GROUP 1 FACE 18
  0
3DFACE
  8
Fixed Shading
 62
  9
 10
        1.17821
 20
       -0.09844
 30
       -1.33784
 11
        0.83379
 21
       -0.10199
 31
       -1.13440
 12
        0.83179
 22
       -0.10193
 32
       -1.13787
 13
        0.83179
 23
       -0.10193
 33
       -1.13787
999
Fixed Shading:Mir-SHADING GROUP 1 FACE 18
  0
3DFACE
  8
Fixed Shading
 62
  9
 10
        0.83179
 20
       -0.10193
 30
       -1.13787
 11
        0.83379
 21
       -0.10199
 31
       -1.13440
 12
        1.17821
 22
       -0.09844
 32
       -1.33784
 13
        1.17821
 23
       -0.09844
 33
       -1.33784
999
Fixed Shading:SHADING GROUP 1 FACE 19
  0
3DFACE
  8
Fixed Shading
 62
  9
 10
        0.67821
 20
       -0.09844
 30
       -1.33784
 11
        0.33179
 21
       -0.10193
 31
       -1.13787
 12
        0.33179
 22
       -0.50187
 32
       -1.14485
 13
        0.67821
 23
       -0.49838
 33
       -1.34482
999
Fixed Shading:Mir-SHADING GROUP 1 FACE 19
  0
3DFACE
  8
Fixed Shading
 62
  9
 10
        0.67821
 20
       -0.49838
 30
       -1.34482
 11
        0.33179
 21
       -0.50187
 31
       -1.14485
 12
        0.33179
 22
       -0.10193
 32
       -1.13787
 13
        0.67821
 23
       -0.09844
 33
       -1.33784
999
Fixed Shading:SHADING GROUP 1 FACE 20
  0
3DFACE
  8
Fixed Shading
 62
  9
 10
        0.68021
 20
       -0.49844
 30
       -1.34135
 11
        0.33379
 21
       -0.50193
 31
       -1.14138
 12
        0.33379
 22
       -0.10199
 32
       -1.13440
 13
        0.68021
 23
       -0.09850
 33
       -1.33437
999
Fixed Shading:Mir-SHADING GROUP 1 FACE 20
  0
3DFACE
  8
Fixed Shading
 62
  9
 10
        0.68021
 20
       -0.09850
 30
       -1.33437
 11
        0.33379
 21
       -0.10199
 31
       -1.13440
 12
        0.33379
 22
       -0.50193
 32
       -1.14138
 13
        0.68021
 23
       -0.49844
 33
       -1.34135
999
Fixed Shading:SHADING GROUP 1 FACE 21
  0
3DFACE
  8
Fixed Shading
 62
  9
 10
        0.67821
 20
       -0.49838
 30
       -1.34482
 11
        0.68021
 21
       -0.09850
 31
       -1.33437
 12
        0.67821
 22
       -0.09844
 32
       -1.33784
 13
        0.67821
 23
       -0.09844
 33
       -1.33784
999
Fixed Shading:Mir-SHADING GROUP 1 FACE 21
  0
3DFACE
  8
Fixed Shading
 62
  9
 10
        0.67821
 20
       -0.09844
 30
       -1.33784
 11
        0.68021
 21
       -0.09850
 31
       -1.33437
 12
        0.67821
 22
       -0.49838
 32
       -1.34482
 13
        0.67821
 23
       -0.49838
 33
       -1.34482
999
Fixed Shading:SHADING GROUP 1 FACE 22
  0
3DFACE
  8
Fixed Shading
 62
  9
 10
        0.33179
 20
       -0.50187
 30
       -1.14485
 11
        0.68021
 21
       -0.49844
 31
       -1.34135
 12
        0.67821
 22
       -0.49838
 32
       -1.34482
 13
        0.67821
 23
       -0.49838
 33
       -1.34482
999
Fixed Shading:Mir-SHADING GROUP 1 FACE 22
  0
3DFACE
  8
Fixed Shading
 62
  9
 10
        0.67821
 20
       -0.49838
 30
       -1.34482
 11
        0.68021
 21
       -0.49844
 31
       -1.34135
 12
        0.33179
 22
       -0.50187
 32
       -1.14485
 13
        0.33179
 23
       -0.50187
 33
       -1.14485
999
Fixed Shading:SHADING GROUP 1 FACE 23
  0
3DFACE
  8
Fixed Shading
 62
  9
 10
        0.33179
 20
       -0.10193
 30
       -1.13787
 11
        0.33379
 21
       -0.50193
 31
       -1.14138
 12
        0.33179
 22
       -0.50187
 32
       -1.14485
 13
        0.33179
 23
       -0.50187
 33
       -1.14485
999
Fixed Shading:Mir-SHADING GROUP 1 FACE 23
  0
3DFACE
  8
Fixed Shading
 62
  9
 10
        0.33179
 20
       -0.50187
 30
       -1.14485
 11
        0.33379
 21
       -0.50193
 31
       -1.14138
 12
        0.33179
 22
       -0.10193
 32
       -1.13787
 13
        0.33179
 23
       -0.10193
 33
       -1.13787
999
Fixed Shading:SHADING GROUP 1 FACE 24
  0
3DFACE
  8
Fixed Shading
 62
  9
 10
        0.67821
 20
       -0.09844
 30
       -1.33784
 11
        0.33379
 21
       -0.10199
 31
       -1.13440
 12
        0.33179
 22
       -0.10193
 32
       -1.13787
 13
        0.33179
 23
       -0.10193
 33
       -1.13787
999
Fixed Shading:Mir-SHADING GROUP 1 FACE 24
  0
3DFACE
  8
Fixed Shading
 62
  9
 10
        0.33179
 20
       -0.10193
 30
       -1.13787
 11
        0.33379
 21
       -0.10199
 31
       -1.13440
 12
        0.67821
 22
       -0.09844
 32
       -1.33784
 13
        0.67821
 23
       -0.09844
 33
       -1.33784
999
Fixed Shading:SHADING GROUP 1 FACE 25
  0
3DFACE
  8
Fixed Shading
 62
  9
 10
        0.17821
 20
       -0.09844
 30
       -1.33784
 11
       -0.16821
 21
       -0.10193
 31
       -1.13787
 12
       -0.16821
 22
       -0.50187
 32
       -1.14485
 13
        0.17821
 23
       -0.49838
 33
       -1.34482
999
Fixed Shading:Mir-SHADING GROUP 1 FACE 25
  0
3DFACE
  8
Fixed Shading
 62
  9
 10
        0.17821
 20
       -0.49838
 30
       -1.34482
 11
       -0.16821
 21
       -0.50187
 31
       -1.14485
 12
       -0.16821
 22
       -0.10193
 32
       -1.13787
 13
        0.17821
 23
       -0.09844
 33
       -1.33784
999
Fixed Shading:SHADING GROUP 1 FACE 26
  0
3DFACE
  8
Fixed Shading
 62
  9
 10
        0.18021
 20
       -0.49844
 30
       -1.34135
 11
       -0.16621
 21
       -0.50193
 31
       -1.14138
 12
       -0.16621
 22
       -0.10199
 32
       -1.13440
 13
        0.18021
 23
       -0.09850
 33
       -1.33437
999
Fixed Shading:Mir-SHADING GROUP 1 FACE 26
  0
3DFACE
  8
Fixed Shading
 62
  9
 10
        0.18021
 20
       -0.09850
 30
       -1.33437
 11
       -0.16621
 21
       -0.10199
 31
       -1.13440
 12
       -0.16621
 22
       -0.50193
 32
       -1.14138
 13
        0.18021
 23
       -0.49844
 33
       -1.34135
999
Fixed Shading:SHADING GROUP 1 FACE 27
  0
3DFACE
  8
Fixed Shading
 62
  9
 10
        0.17821
 20
       -0.49838
 30
       -1.34482
 11
        0.18021
 21
       -0.09850
 31
       -1.33437
 12
        0.17821
 22
       -0.09844
 32
       -1.33784
 13
        0.17821
 23
       -0.09844
 33
       -1.33784
999
Fixed Shading:Mir-SHADING GROUP 1 FACE 27
  0
3DFACE
  8
Fixed Shading
 62
  9
 10
        0.17821
 20
       -0.09844
 30
       -1.33784
 11
        0.18021
 21
       -0.09850
 31
       -1.33437
 12
        0.17821
 22
       -0.49838
 32
       -1.34482
 13
        0.17821
 23
       -0.49838
 33
       -1.34482
999
Fixed Shading:SHADING GROUP 1 FACE 28
  0
3DFACE
  8
Fixed Shading
 62
  9
 10
       -0.16821
 20
       -0.50187
 30
       -1.14485
 11
        0.18021
 21
       -0.49844
 31
       -1.34135
 12
        0.17821
 22
       -0.49838
 32
       -1.34482
 13
        0.17821
 23
       -0.49838
 33
       -1.34482
999
Fixed Shading:Mir-SHADING GROUP 1 FACE 28
  0
3DFACE
  8
Fixed Shading
 62
  9
 10
        0.17821
 20
       -0.49838
 30
       -1.34482
 11
        0.18021
 21
       -0.49844
 31
       -1.34135
 12
       -0.16821
 22
       -0.50187
 32
       -1.14485
 13
       -0.16821
 23
       -0.50187
 33
       -1.14485
999
Fixed Shading:SHADING GROUP 1 FACE 29
  0
3DFACE
  8
Fixed Shading
 62
  9
 10
       -0.16821
 20
       -0.10193
 30
       -1.13787
 11
       -0.16621
 21
       -0.50193
 31
       -1.14138
 12
       -0.16821
 22
       -0.50187
 32
       -1.14485
 13
       -0.16821
 23
       -0.50187
 33
       -1.14485
999
Fixed Shading:Mir-SHADING GROUP 1 FACE 29
  0
3DFACE
  8
Fixed Shading
 62
  9
 10
       -0.16821
 20
       -0.50187
 30
       -1.14485
 11
       -0.16621
 21
       -0.50193
 31
       -1.14138
 12
       -0.16821
 22
       -0.10193
 32
       -1.13787
 13
       -0.16821
 23
       -0.10193
 33
       -1.13787
999
Fixed Shading:SHADING GROUP 1 FACE 30
  0
3DFACE
  8
Fixed Shading
 62
  9
 10
        0.17821
 20
       -0.09844
 30
       -1.33784
 11
       -0.16621
 21
       -0.10199
 31
       -1.13440
 12
       -0.16821
 22
       -0.10193
 32
       -1.13787
 13
       -0.16821
 23
       -0.10193
 33
       -1.13787
999
Fixed Shading:Mir-SHADING GROUP 1 FACE 30
  0
3DFACE
  8
Fixed Shading
 62
  9
 10
       -0.16821
 20
       -0.10193
 30
       -1.13787
 11
       -0.16621
 21
       -0.10199
 31
       -1.13440
 12
        0.17821
 22
       -0.09844
 32
       -1.33784
 13
        0.17821
 23
       -0.09844
 33
       -1.33784
999
Fixed Shading:SHADING GROUP 1 FACE 31
  0
3DFACE
  8
Fixed Shading
 62
  9
 10
       -0.32179
 20
       -0.09844
 30
       -1.33784
 11
       -0.66821
 21
       -0.10193
 31
       -1.13787
 12
       -0.66821
 22
       -0.50187
 32
       -1.14485
 13
       -0.32179
 23
       -0.49838
 33
       -1.34482
999
Fixed Shading:Mir-SHADING GROUP 1 FACE 31
  0
3DFACE
  8
Fixed Shading
 62
  9
 10
       -0.32179
 20
       -0.49838
 30
       -1.34482
 11
       -0.66821
 21
       -0.50187
 31
       -1.14485
 12
       -0.66821
 22
       -0.10193
 32
       -1.13787
 13
       -0.32179
 23
       -0.09844
 33
       -1.33784
999
Fixed Shading:SHADING GROUP 1 FACE 32
  0
3DFACE
  8
Fixed Shading
 62
  9
 10
       -0.31979
 20
       -0.49844
 30
       -1.34135
 11
       -0.66621
 21
       -0.50193
 31
       -1.14138
 12
       -0.66621
 22
       -0.10199
 32
       -1.13440
 13
       -0.31979
 23
       -0.09850
 33
       -1.33437
999
Fixed Shading:Mir-SHADING GROUP 1 FACE 32
  0
3DFACE
  8
Fixed Shading
 62
  9
 10
       -0.31979
 20
       -0.09850
 30
       -1.33437
 11
       -0.66621
 21
       -0.10199
 31
       -1.13440
 12
       -0.66621
 22
       -0.50193
 32
       -1.14138
 13
       -0.31979
 23
       -0.49844
 33
       -1.34135
999
Fixed Shading:SHADING GROUP 1 FACE 33
  0
3DFACE
  8
Fixed Shading
 62
  9
 10
       -0.32179
 20
       -0.49838
 30
       -1.34482
 11
       -0.31979
 21
       -0.09850
 31
       -1.33437
 12
       -0.32179
 22
       -0.09844
 32
       -1.33784
 13
       -0.32179
 23
       -0.09844
 33
       -1.33784
999
Fixed Shading:Mir-SHADING GROUP 1 FACE 33
  0
3DFACE
  8
Fixed Shading
 62
  9
 10
       -0.32179
 20
       -0.09844
 30
       -1.33784
 11
       -0.31979
 21
       -0.09850
 31
       -1.33437
 12
       -0.32179
 22
       -0.49838
 32
       -1.34482
 13
       -0.32179
 23
       -0.49838
 33
       -1.34482
999
Fixed Shading:SHADING GROUP 1 FACE 34
  0
3DFACE
  8
Fixed Shading
 62
  9
 10
       -0.66821
 20
       -0.50187
 30
       -1.14485
 11
       -0.31979
 21
       -0.49844
 31
       -1.34135
 12
       -0.32179
 22
       -0.49838
 32
       -1.34482
 13
       -0.32179
 23
       -0.49838
 33
       -1.34482
999
Fixed Shading:Mir-SHADING GROUP 1 FACE 34
  0
3DFACE
  8
Fixed Shading
 62
  9
 10
       -0.32179
 20
       -0.49838
 30
       -1.34482
 11
       -0.31979
 21
       -0.49844
 31
       -1.34135
 12
       -0.66821
 22
       -0.50187
 32
       -1.14485
 13
       -0.66821
 23
       -0.50187
 33
       -1.14485
999
Fixed Shading:SHADING GROUP 1 FACE 35
  0
3DFACE
  8
Fixed Shading
 62
  9
 10
       -0.66821
 20
       -0.10193
 30
       -1.13787
 11
       -0.66621
 21
       -0.50193
 31
       -1.14138
 12
       -0.66821
 22
       -0.50187
 32
       -1.14485
 13
       -0.66821
 23
       -0.50187
 33
       -1.14485
999
Fixed Shading:Mir-SHADING GROUP 1 FACE 35
  0
3DFACE
  8
Fixed Shading
 62
  9
 10
       -0.66821
 20
       -0.50187
 30
       -1.14485
 11
       -0.66621
 21
       -0.50193
 31
       -1.14138
 12
       -0.66821
 22
       -0.10193
 32
       -1.13787
 13
       -0.66821
 23
       -0.10193
 33
       -1.13787
999
Fixed Shading:SHADING GROUP 1 FACE 36
  0
3DFACE
  8
Fixed Shading
 62
  9
 10
       -0.32179
 20
       -0.09844
 30
       -1.33784
 11
       -0.66621
 21
       -0.10199
 31
       -1.13440
 12
       -0.66821
 22
       -0.10193
 32
       -1.13787
 13
       -0.66821
 23
       -0.10193
 33
       -1.13787
999
Fixed Shading:Mir-SHADING GROUP 1 FACE 36
  0
3DFACE
  8
Fixed Shading
 62
  9
 10
       -0.66821
 20
       -0.10193
 30
       -1.13787
 11
       -0.66621
 21
       -0.10199
 31
       -1.13440
 12
       -0.32179
 22
       -0.09844
 32
       -1.33784
 13
       -0.32179
 23
       -0.09844
 33
       -1.33784
999
Fixed Shading:SHADING GROUP 1 FACE 37
  0
3DFACE
  8
Fixed Shading
 62
  9
 10
       -0.82179
 20
       -0.09844
 30
       -1.33784
 11
       -1.16821
 21
       -0.10193
 31
       -1.13787
 12
       -1.16821
 22
       -0.50187
 32
       -1.14485
 13
       -0.82179
 23
       -0.49838
 33
       -1.34482
999
Fixed Shading:Mir-SHADING GROUP 1 FACE 37
  0
3DFACE
  8
Fixed Shading
 62
  9
 10
       -0.82179
 20
       -0.49838
 30
       -1.34482
 11
       -1.16821
 21
       -0.50187
 31
       -1.14485
 12
       -1.16821
 22
       -0.10193
 32
       -1.13787
 13
       -0.82179
 23
       -0.09844
 33
       -1.33784
999
Fixed Shading:SHADING GROUP 1 FACE 38
  0
3DFACE
  8
Fixed Shading
 62
  9
 10
       -0.81979
 20
       -0.49844
 30
       -1.34135
 11
       -1.16621
 21
       -0.50193
 31
       -1.14138
 12
       -1.16621
 22
       -0.10199
 32
       -1.13440
 13
       -0.81979
 23
       -0.09850
 33
       -1.33437
999
Fixed Shading:Mir-SHADING GROUP 1 FACE 38
  0
3DFACE
  8
Fixed Shading
 62
  9
 10
       -0.81979
 20
       -0.09850
 30
       -1.33437
 11
       -1.16621
 21
       -0.10199
 31
       -1.13440
 12
       -1.16621
 22
       -0.50193
 32
       -1.14138
 13
       -0.81979
 23
       -0.49844
 33
       -1.34135
999
Fixed Shading:SHADING GROUP 1 FACE 39
  0
3DFACE
  8
Fixed Shading
 62
  9
 10
       -0.82179
 20
       -0.49838
 30
       -1.34482
 11
       -0.81979
 21
       -0.09850
 31
       -1.33437
 12
       -0.82179
 22
       -0.09844
 32
       -1.33784
 13
       -0.82179
 23
       -0.09844
 33
       -1.33784
999
Fixed Shading:Mir-SHADING GROUP 1 FACE 39
  0
3DFACE
  8
Fixed Shading
 62
  9
 10
       -0.82179
 20
       -0.09844
 30
       -1.33784
 11
       -0.81979
 21
       -0.09850
 31
       -1.33437
 12
       -0.82179
 22
       -0.49838
 32
       -1.34482
 13
       -0.82179
 23
       -0.49838
 33
       -1.34482
999
Fixed Shading:SHADING GROUP 1 FACE 40
  0
3DFACE
  8
Fixed Shading
 62
  9
 10
       -1.16821
 20
       -0.50187
 30
       -1.14485
 11
       -0.81979
 21
       -0.49844
 31
       -1.34135
 12
       -0.82179
 22
       -0.49838
 32
       -1.34482
 13
       -0.82179
 23
       -0.49838
 33
       -1.34482
999
Fixed Shading:Mir-SHADING GROUP 1 FACE 40
  0
3DFACE
  8
Fixed Shading
 62
  9
 10
       -0.82179
 20
       -0.49838
 30
       -1.34482
 11
       -0.81979
 21
       -0.49844
 31
       -1.34135
 12
       -1.16821
 22
       -0.50187
 32
       -1.14485
 13
       -1.16821
 23
       -0.50187
 33
       -1.14485
999
Fixed Shading:SHADING GROUP 1 FACE 41
  0
3DFACE
  8
Fixed Shading
 62
  9
 10
       -1.16821
 20
       -0.10193
 30
       -1.13787
 11
       -1.16621
 21
       -0.50193
 31
       -1.14138
 12
       -1.16821
 22
       -0.50187
 32
       -1.14485
 13
       -1.16821
 23
       -0.50187
 33
       -1.14485
999
Fixed Shading:Mir-SHADING GROUP 1 FACE 41
  0
3DFACE
  8
Fixed Shading
 62
  9
 10
       -1.16821
 20
       -0.50187
 30
       -1.14485
 11
       -1.16621
 21
       -0.50193
 31
       -1.14138
 12
       -1.16821
 22
       -0.10193
 32
       -1.13787
 13
       -1.16821
 23
       -0.10193
 33
       -1.13787
999
Fixed Shading:SHADING GROUP 1 FACE 42
  0
3DFACE
  8
Fixed Shading
 62
  9
 10
       -0.82179
 20
       -0.09844
 30
       -1.33784
 11
       -1.16621
 21
       -0.10199
 31
       -1.13440
 12
       -1.16821
 22
       -0.10193
 32
       -1.13787
 13
       -1.16821
 23
       -0.10193
 33
       -1.13787
999
Fixed Shading:Mir-SHADING GROUP 1 FACE 42
  0
3DFACE
  8
Fixed Shading
 62
  9
 10
       -1.16821
 20
       -0.10193
 30
       -1.13787
 11
       -1.16621
 21
       -0.10199
 31
       -1.13440
 12
       -0.82179
 22
       -0.09844
 32
       -1.33784
 13
       -0.82179
 23
       -0.09844
 33
       -1.33784
999
Fixed Shading:SHADING GROUP 1 FACE 43
  0
3DFACE
  8
Fixed Shading
 62
  9
 10
       -1.32179
 20
       -0.09844
 30
       -1.33784
 11
       -1.66821
 21
       -0.10193
 31
       -1.13787
 12
       -1.66821
 22
       -0.50187
 32
       -1.14485
 13
       -1.32179
 23
       -0.49838
 33
       -1.34482
999
Fixed Shading:Mir-SHADING GROUP 1 FACE 43
  0
3DFACE
  8
Fixed Shading
 62
  9
 10
       -1.32179
 20
       -0.49838
 30
       -1.34482
 11
       -1.66821
 21
       -0.50187
 31
       -1.14485
 12
       -1.66821
 22
       -0.10193
 32
       -1.13787
 13
       -1.32179
 23
       -0.09844
 33
       -1.33784
999
Fixed Shading:SHADING GROUP 1 FACE 44
  0
3DFACE
  8
Fixed Shading
 62
  9
 10
       -1.31979
 20
       -0.49844
 30
       -1.34135
 11
       -1.66621
 21
       -0.50193
 31
       -1.14138
 12
       -1.66621
 22
       -0.10199
 32
       -1.13440
 13
       -1.31979
 23
       -0.09850
 33
       -1.33437
999
Fixed Shading:Mir-SHADING GROUP 1 FACE 44
  0
3DFACE
  8
Fixed Shading
 62
  9
 10
       -1.31979
 20
       -0.09850
 30
       -1.33437
 11
       -1.66621
 21
       -0.10199
 31
       -1.13440
 12
       -1.66621
 22
       -0.50193
 32
       -1.14138
 13
       -1.31979
 23
       -0.49844
 33
       -1.34135
999
Fixed Shading:SHADING GROUP 1 FACE 45
  0
3DFACE
  8
Fixed Shading
 62
  9
 10
       -1.32179
 20
       -0.49838
 30
       -1.34482
 11
       -1.31979
 21
       -0.09850
 31
       -1.33437
 12
       -1.32179
 22
       -0.09844
 32
       -1.33784
 13
       -1.32179
 23
       -0.09844
 33
       -1.33784
999
Fixed Shading:Mir-SHADING GROUP 1 FACE 45
  0
3DFACE
  8
Fixed Shading
 62
  9
 10
       -1.32179
 20
       -0.09844
 30
       -1.33784
 11
       -1.31979
 21
       -0.09850
 31
       -1.33437
 12
       -1.32179
 22
       -0.49838
 32
       -1.34482
 13
       -1.32179
 23
       -0.49838
 33
       -1.34482
999
Fixed Shading:SHADING GROUP 1 FACE 46
  0
3DFACE
  8
Fixed Shading
 62
  9
 10
       -1.66821
 20
       -0.50187
 30
       -1.14485
 11
       -1.31979
 21
       -0.49844
 31
       -1.34135
 12
       -1.32179
 22
       -0.49838
 32
       -1.34482
 13
       -1.32179
 23
       -0.49838
 33
       -1.34482
999
Fixed Shading:Mir-SHADING GROUP 1 FACE 46
  0
3DFACE
  8
Fixed Shading
 62
  9
 10
       -1.32179
 20
       -0.49838
 30
       -1.34482
 11
       -1.31979
 21
       -0.49844
 31
       -1.34135
 12
       -1.66821
 22
       -0.50187
 32
       -1.14485
 13
       -1.66821
 23
       -0.50187
 33
       -1.14485
999
Fixed Shading:SHADING GROUP 1 FACE 47
  0
3DFACE
  8
Fixed Shading
 62
  9
 10
       -1.66821
 20
       -0.10193
 30
       -1.13787
 11
       -1.66621
 21
       -0.50193
 31
       -1.14138
 12
       -1.66821
 22
       -0.50187
 32
       -1.14485
 13
       -1.66821
 23
       -0.50187
 33
       -1.14485
999
Fixed Shading:Mir-SHADING GROUP 1 FACE 47
  0
3DFACE
  8
Fixed Shading
 62
  9
 10
       -1.66821
 20
       -0.50187
 30
       -1.14485
 11
       -1.66621
 21
       -0.50193
 31
       -1.14138
 12
       -1.66821
 22
       -0.10193
 32
       -1.13787
 13
       -1.66821
 23
       -0.10193
 33
       -1.13787
999
Fixed Shading:SHADING GROUP 1 FACE 48
  0
3DFACE
  8
Fixed Shading
 62
  9
 10
       -1.32179
 20
       -0.09844
 30
       -1.33784
 11
       -1.66621
 21
       -0.10199
 31
       -1.13440
 12
       -1.66821
 22
       -0.10193
 32
       -1.13787
 13
       -1.66821
 23
       -0.10193
 33
       -1.13787
999
Fixed Shading:Mir-SHADING GROUP 1 FACE 48
  0
3DFACE
  8
Fixed Shading
 62
  9
 10
       -1.66821
 20
       -0.10193
 30
       -1.13787
 11
       -1.66621
 21
       -0.10199
 31
       -1.13440
 12
       -1.32179
 22
       -0.09844
 32
       -1.33784
 13
       -1.32179
 23
       -0.09844
 33
       -1.33784
999
Fixed Shading:SHADING GROUP 1 FACE 49
  0
3DFACE
  8
Fixed Shading
 62
  9
 10
       -1.82179
 20
       -0.09844
 30
       -1.33784
 11
       -2.16821
 21
       -0.10193
 31
       -1.13787
 12
       -2.16821
 22
       -0.50187
 32
       -1.14485
 13
       -1.82179
 23
       -0.49838
 33
       -1.34482
999
Fixed Shading:Mir-SHADING GROUP 1 FACE 49
  0
3DFACE
  8
Fixed Shading
 62
  9
 10
       -1.82179
 20
       -0.49838
 30
       -1.34482
 11
       -2.16821
 21
       -0.50187
 31
       -1.14485
 12
       -2.16821
 22
       -0.10193
 32
       -1.13787
 13
       -1.82179
 23
       -0.09844
 33
       -1.33784
999
Fixed Shading:SHADING GROUP 1 FACE 50
  0
3DFACE
  8
Fixed Shading
 62
  9
 10
       -1.81979
 20
       -0.49844
 30
       -1.34135
 11
       -2.16621
 21
       -0.50193
 31
       -1.14138
 12
       -2.16621
 22
       -0.10199
 32
       -1.13440
 13
       -1.81979
 23
       -0.09850
 33
       -1.33437
999
Fixed Shading:Mir-SHADING GROUP 1 FACE 50
  0
3DFACE
  8
Fixed Shading
 62
  9
 10
       -1.81979
 20
       -0.09850
 30
       -1.33437
 11
       -2.16621
 21
       -0.10199
 31
       -1.13440
 12
       -2.16621
 22
       -0.50193
 32
       -1.14138
 13
       -1.81979
 23
       -0.49844
 33
       -1.34135
999
Fixed Shading:SHADING GROUP 1 FACE 51
  0
3DFACE
  8
Fixed Shading
 62
  9
 10
       -1.82179
 20
       -0.49838
 30
       -1.34482
 11
       -1.81979
 21
       -0.09850
 31
       -1.33437
 12
       -1.82179
 22
       -0.09844
 32
       -1.33784
 13
       -1.82179
 23
       -0.09844
 33
       -1.33784
999
Fixed Shading:Mir-SHADING GROUP 1 FACE 51
  0
3DFACE
  8
Fixed Shading
 62
  9
 10
       -1.82179
 20
       -0.09844
 30
       -1.33784
 11
       -1.81979
 21
       -0.09850
 31
       -1.33437
 12
       -1.82179
 22
       -0.49838
 32
       -1.34482
 13
       -1.82179
 23
       -0.49838
 33
       -1.34482
999
Fixed Shading:SHADING GROUP 1 FACE 52
  0
3DFACE
  8
Fixed Shading
 62
  9
 10
       -2.16821
 20
       -0.50187
 30
       -1.14485
 11
       -1.81979
 21
       -0.49844
 31
       -1.34135
 12
       -1.82179
 22
       -0.49838
 32
       -1.34482
 13
       -1.82179
 23
       -0.49838
 33
       -1.34482
999
Fixed Shading:Mir-SHADING GROUP 1 FACE 52
  0
3DFACE
  8
Fixed Shading
 62
  9
 10
       -1.82179
 20
       -0.49838
 30
       -1.34482
 11
       -1.81979
 21
       -0.49844
 31
       -1.34135
 12
       -2.16821
 22
       -0.50187
 32
       -1.14485
 13
       -2.16821
 23
       -0.50187
 33
       -1.14485
999
Fixed Shading:SHADING GROUP 1 FACE 53
  0
3DFACE
  8
Fixed Shading
 62
  9
 10
       -2.16821
 20
       -0.10193
 30
       -1.13787
 11
       -2.16621
 21
       -0.50193
 31
       -1.14138
 12
       -2.16821
 22
       -0.50187
 32
       -1.14485
 13
       -2.16821
 23
       -0.50187
 33
       -1.14485
999
Fixed Shading:Mir-SHADING GROUP 1 FACE 53
  0
3DFACE
  8
Fixed Shading
 62
  9
 10
       -2.16821
 20
       -0.50187
 30
       -1.14485
 11
       -2.16621
 21
       -0.50193
 31
       -1.14138
 12
       -2.16821
 22
       -0.10193
 32
       -1.13787
 13
       -2.16821
 23
       -0.10193
 33
       -1.13787
999
Fixed Shading:SHADING GROUP 1 FACE 54
  0
3DFACE
  8
Fixed Shading
 62
  9
 10
       -1.82179
 20
       -0.09844
 30
       -1.33784
 11
       -2.16621
 21
       -0.10199
 31
       -1.13440
 12
       -2.16821
 22
       -0.10193
 32
       -1.13787
 13
       -2.16821
 23
       -0.10193
 33
       -1.13787
999
Fixed Shading:Mir-SHADING GROUP 1 FACE 54
  0
3DFACE
  8
Fixed Shading
 62
  9
 10
       -2.16821
 20
       -0.10193
 30
       -1.13787
 11
       -2.16621
 21
       -0.10199
 31
       -1.13440
 12
       -1.82179
 22
       -0.09844
 32
       -1.33784
 13
       -1.82179
 23
       -0.09844
 33
       -1.33784
999
Fixed Shading:SHADING GROUP 1 FACE 55
  0
3DFACE
  8
Fixed Shading
 62
  9
 10
        2.17821
 20
       -0.09844
 30
       -0.83784
 11
        1.83179
 21
       -0.10193
 31
       -0.63787
 12
        1.83179
 22
       -0.50187
 32
       -0.64485
 13
        2.17821
 23
       -0.49838
 33
       -0.84482
999
Fixed Shading:Mir-SHADING GROUP 1 FACE 55
  0
3DFACE
  8
Fixed Shading
 62
  9
 10
        2.17821
 20
       -0.49838
 30
       -0.84482
 11
        1.83179
 21
       -0.50187
 31
       -0.64485
 12
        1.83179
 22
       -0.10193
 32
       -0.63787
 13
        2.17821
 23
       -0.09844
 33
       -0.83784
999
Fixed Shading:SHADING GROUP 1 FACE 56
  0
3DFACE
  8
Fixed Shading
 62
  9
 10
        2.18021
 20
       -0.49844
 30
       -0.84135
 11
        1.83379
 21
       -0.50193
 31
       -0.64138
 12
        1.83379
 22
       -0.10199
 32
       -0.63440
 13
        2.18021
 23
       -0.09850
 33
       -0.83437
999
Fixed Shading:Mir-SHADING GROUP 1 FACE 56
  0
3DFACE
  8
Fixed Shading
 62
  9
 10
        2.18021
 20
       -0.09850
 30
       -0.83437
 11
        1.83379
 21
       -0.10199
 31
       -0.63440
 12
        1.83379
 22
       -0.50193
 32
       -0.64138
 13
        2.18021
 23
       -0.49844
 33
       -0.84135
999
Fixed Shading:SHADING GROUP 1 FACE 57
  0
3DFACE
  8
Fixed Shading
 62
  9
 10
        2.17821
 20
       -0.49838
 30
       -0.84482
 11
        2.18021
 21
       -0.09850
 31
       -0.83437
 12
        2.17821
 22
       -0.09844
 32
       -0.83784
 13
        2.17821
 23
       -0.09844
 33
       -0.83784
999
Fixed Shading:Mir-SHADING GROUP 1 FACE 57
  0
3DFACE
  8
Fixed Shading
 62
  9
 10
        2.17821
 20
       -0.09844
 30
       -0.83784
 11
        2.18021
 21
       -0.09850
 31
       -0.83437
 12
        2.17821
 22
       -0.49838
 32
       -0.84482
 13
        2.17821
 23
       -0.49838
 33
       -0.84482
999
Fixed Shading:SHADING GROUP 1 FACE 58
  0
3DFACE
  8
Fixed Shading
 62
  9
 10
        1.83179
 20
       -0.50187
 30
       -0.64485
 11
        2.18021
 21
       -0.49844
 31
       -0.84135
 12
        2.17821
 22
       -0.49838
 32
       -0.84482
 13
        2.17821
 23
       -0.49838
 33
       -0.84482
999
Fixed Shading:Mir-SHADING GROUP 1 FACE 58
  0
3DFACE
  8
Fixed Shading
 62
  9
 10
        2.17821
 20
       -0.49838
 30
       -0.84482
 11
        2.18021
 21
       -0.49844
 31
       -0.84135
 12
        1.83179
 22
       -0.50187
 32
       -0.64485
 13
        1.83179
 23
       -0.50187
 33
       -0.64485
999
Fixed Shading:SHADING GROUP 1 FACE 59
  0
3DFACE
  8
Fixed Shading
 62
  9
 10
        1.83179
 20
       -0.10193
 30
       -0.63787
 11
        1.83379
 21
       -0.50193
 31
       -0.64138
 12
        1.83179
 22
       -0.50187
 32
       -0.64485
 13
        1.83179
 23
       -0.50187
 33
       -0.64485
999
Fixed Shading:Mir-SHADING GROUP 1 FACE 59
  0
3DFACE
  8
Fixed Shading
 62
  9
 10
        1.83179
 20
       -0.50187
 30
       -0.64485
 11
        1.83379
 21
       -0.50193
 31
       -0.64138
 12
        1.83179
 22
       -0.10193
 32
       -0.63787
 13
        1.83179
 23
       -0.10193
 33
       -0.63787
999
Fixed Shading:SHADING GROUP 1 FACE 60
  0
3DFACE
  8
Fixed Shading
 62
  9
 10
        2.17821
 20
       -0.09844
 30
       -0.83784
 11
        1.83379
 21
       -0.10199
 31
       -0.63440
 12
        1.83179
 22
       -0.10193
 32
       -0.63787
 13
        1.83179
 23
       -0.10193
 33
       -0.63787
999
Fixed Shading:Mir-SHADING GROUP 1 FACE 60
  0
3DFACE
  8
Fixed Shading
 62
  9
 10
        1.83179
 20
       -0.10193
 30
       -0.63787
 11
        1.83379
 21
       -0.10199
 31
       -0.63440
 12
        2.17821
 22
       -0.09844
 32
       -0.83784
 13
        2.17821
 23
       -0.09844
 33
       -0.83784
999
Fixed Shading:SHADING GROUP 1 FACE 61
  0
3DFACE
  8
Fixed Shading
 62
  9
 10
        1.67821
 20
       -0.09844
 30
       -0.83784
 11
        1.33179
 21
       -0.10193
 31
       -0.63787
 12
        1.33179
 22
       -0.50187
 32
       -0.64485
 13
        1.67821
 23
       -0.49838
 33
       -0.84482
999
Fixed Shading:Mir-SHADING GROUP 1 FACE 61
  0
3DFACE
  8
Fixed Shading
 62
  9
 10
        1.67821
 20
       -0.49838
 30
       -0.84482
 11
        1.33179
 21
       -0.50187
 31
       -0.64485
 12
        1.33179
 22
       -0.10193
 32
       -0.63787
 13
        1.67821
 23
       -0.09844
 33
       -0.83784
999
Fixed Shading:SHADING GROUP 1 FACE 62
  0
3DFACE
  8
Fixed Shading
 62
  9
 10
        1.68021
 20
       -0.49844
 30
       -0.84135
 11
        1.33379
 21
       -0.50193
 31
       -0.64138
 12
        1.33379
 22
       -0.10199
 32
       -0.63440
 13
        1.68021
 23
       -0.09850
 33
       -0.83437
999
Fixed Shading:Mir-SHADING GROUP 1 FACE 62
  0
3DFACE
  8
Fixed Shading
 62
  9
 10
        1.68021
 20
       -0.09850
 30
       -0.83437
 11
        1.33379
 21
       -0.10199
 31
       -0.63440
 12
        1.33379
 22
       -0.50193
 32
       -0.64138
 13
        1.68021
 23
       -0.49844
 33
       -0.84135
999
Fixed Shading:SHADING GROUP 1 FACE 63
  0
3DFACE
  8
Fixed Shading
 62
  9
 10
        1.67821
 20
       -0.49838
 30
       -0.84482
 11
        1.68021
 21
       -0.09850
 31
       -0.83437
 12
        1.67821
 22
       -0.09844
 32
       -0.83784
 13
        1.67821
 23
       -0.09844
 33
       -0.83784
999
Fixed Shading:Mir-SHADING GROUP 1 FACE 63
  0
3DFACE
  8
Fixed Shading
 62
  9
 10
        1.67821
 20
       -0.09844
 30
       -0.83784
 11
        1.68021
 21
       -0.09850
 31
       -0.83437
 12
        1.67821
 22
       -0.49838
 32
       -0.84482
 13
        1.67821
 23
       -0.49838
 33
       -0.84482
999
Fixed Shading:SHADING GROUP 1 FACE 64
  0
3DFACE
  8
Fixed Shading
 62
  9
 10
        1.33179
 20
       -0.50187
 30
       -0.64485
 11
        1.68021
 21
       -0.49844
 31
       -0.84135
 12
        1.67821
 22
       -0.49838
 32
       -0.84482
 13
        1.67821
 23
       -0.49838
 33
       -0.84482
999
Fixed Shading:Mir-SHADING GROUP 1 FACE 64
  0
3DFACE
  8
Fixed Shading
 62
  9
 10
        1.67821
 20
       -0.49838
 30
       -0.84482
 11
        1.68021
 21
       -0.49844
 31
       -0.84135
 12
        1.33179
 22
       -0.50187
 32
       -0.64485
 13
        1.33179
 23
       -0.50187
 33
       -0.64485
999
Fixed Shading:SHADING GROUP 1 FACE 65
  0
3DFACE
  8
Fixed Shading
 62
  9
 10
        1.33179
 20
       -0.10193
 30
       -0.63787
 11
        1.33379
 21
       -0.50193
 31
       -0.64138
 12
        1.33179
 22
       -0.50187
 32
       -0.64485
 13
        1.33179
 23
       -0.50187
 33
       -0.64485
999
Fixed Shading:Mir-SHADING GROUP 1 FACE 65
  0
3DFACE
  8
Fixed Shading
 62
  9
 10
        1.33179
 20
       -0.50187
 30
       -0.64485
 11
        1.33379
 21
       -0.50193
 31
       -0.64138
 12
        1.33179
 22
       -0.10193
 32
       -0.63787
 13
        1.33179
 23
       -0.10193
 33
       -0.63787
999
Fixed Shading:SHADING GROUP 1 FACE 66
  0
3DFACE
  8
Fixed Shading
 62
  9
 10
        1.67821
 20
       -0.09844
 30
       -0.83784
 11
        1.33379
 21
       -0.10199
 31
       -0.63440
 12
        1.33179
 22
       -0.10193
 32
       -0.63787
 13
        1.33179
 23
       -0.10193
 33
       -0.63787
999
Fixed Shading:Mir-SHADING GROUP 1 FACE 66
  0
3DFACE
  8
Fixed Shading
 62
  9
 10
        1.33179
 20
       -0.10193
 30
       -0.63787
 11
        1.33379
 21
       -0.10199
 31
       -0.63440
 12
        1.67821
 22
       -0.09844
 32
       -0.83784
 13
        1.67821
 23
       -0.09844
 33
       -0.83784
999
Fixed Shading:SHADING GROUP 1 FACE 67
  0
3DFACE
  8
Fixed Shading
 62
  9
 10
        1.17821
 20
       -0.09844
 30
       -0.83784
 11
        0.83179
 21
       -0.10193
 31
       -0.63787
 12
        0.83179
 22
       -0.50187
 32
       -0.64485
 13
        1.17821
 23
       -0.49838
 33
       -0.84482
999
Fixed Shading:Mir-SHADING GROUP 1 FACE 67
  0
3DFACE
  8
Fixed Shading
 62
  9
 10
        1.17821
 20
       -0.49838
 30
       -0.84482
 11
        0.83179
 21
       -0.50187
 31
       -0.64485
 12
        0.83179
 22
       -0.10193
 32
       -0.63787
 13
        1.17821
 23
       -0.09844
 33
       -0.83784
999
Fixed Shading:SHADING GROUP 1 FACE 68
  0
3DFACE
  8
Fixed Shading
 62
  9
 10
        1.18021
 20
       -0.49844
 30
       -0.84135
 11
        0.83379
 21
       -0.50193
 31
       -0.64138
 12
        0.83379
 22
       -0.10199
 32
       -0.63440
 13
        1.18021
 23
       -0.09850
 33
       -0.83437
999
Fixed Shading:Mir-SHADING GROUP 1 FACE 68
  0
3DFACE
  8
Fixed Shading
 62
  9
 10
        1.18021
 20
       -0.09850
 30
       -0.83437
 11
        0.83379
 21
       -0.10199
 31
       -0.63440
 12
        0.83379
 22
       -0.50193
 32
       -0.64138
 13
        1.18021
 23
       -0.49844
 33
       -0.84135
999
Fixed Shading:SHADING GROUP 1 FACE 69
  0
3DFACE
  8
Fixed Shading
 62
  9
 10
        1.17821
 20
       -0.49838
 30
       -0.84482
 11
        1.18021
 21
       -0.09850
 31
       -0.83437
 12
        1.17821
 22
       -0.09844
 32
       -0.83784
 13
        1.17821
 23
       -0.09844
 33
       -0.83784
999
Fixed Shading:Mir-SHADING GROUP 1 FACE 69
  0
3DFACE
  8
Fixed Shading
 62
  9
 10
        1.17821
 20
       -0.09844
 30
       -0.83784
 11
        1.18021
 21
       -0.09850
 31
       -0.83437
 12
        1.17821
 22
       -0.49838
 32
       -0.84482
 13
        1.17821
 23
       -0.49838
 33
       -0.84482
999
Fixed Shading:SHADING GROUP 1 FACE 70
  0
3DFACE
  8
Fixed Shading
 62
  9
 10
        0.83179
 20
       -0.50187
 30
       -0.64485
 11
        1.18021
 21
       -0.49844
 31
       -0.84135
 12
        1.17821
 22
       -0.49838
 32
       -0.84482
 13
        1.17821
 23
       -0.49838
 33
       -0.84482
999
Fixed Shading:Mir-SHADING GROUP 1 FACE 70
  0
3DFACE
  8
Fixed Shading
 62
  9
 10
        1.17821
 20
       -0.49838
 30
       -0.84482
 11
        1.18021
 21
       -0.49844
 31
       -0.84135
 12
        0.83179
 22
       -0.50187
 32
       -0.64485
 13
        0.83179
 23
       -0.50187
 33
       -0.64485
999
Fixed Shading:SHADING GROUP 1 FACE 71
  0
3DFACE
  8
Fixed Shading
 62
  9
 10
        0.83179
 20
       -0.10193
 30
       -0.63787
 11
        0.83379
 21
       -0.50193
 31
       -0.64138
 12
        0.83179
 22
       -0.50187
 32
       -0.64485
 13
        0.83179
 23
       -0.50187
 33
       -0.64485
999
Fixed Shading:Mir-SHADING GROUP 1 FACE 71
  0
3DFACE
  8
Fixed Shading
 62
  9
 10
        0.83179
 20
       -0.50187
 30
       -0.64485
 11
        0.83379
 21
       -0.50193
 31
       -0.64138
 12
        0.83179
 22
       -0.10193
 32
       -0.63787
 13
        0.83179
 23
       -0.10193
 33
       -0.63787
999
Fixed Shading:SHADING GROUP 1 FACE 72
  0
3DFACE
  8
Fixed Shading
 62
  9
 10
        1.17821
 20
       -0.09844
 30
       -0.83784
 11
        0.83379
 21
       -0.10199
 31
       -0.63440
 12
        0.83179
 22
       -0.10193
 32
       -0.63787
 13
        0.83179
 23
       -0.10193
 33
       -0.63787
999
Fixed Shading:Mir-SHADING GROUP 1 FACE 72
  0
3DFACE
  8
Fixed Shading
 62
  9
 10
        0.83179
 20
       -0.10193
 30
       -0.63787
 11
        0.83379
 21
       -0.10199
 31
       -0.63440
 12
        1.17821
 22
       -0.09844
 32
       -0.83784
 13
        1.17821
 23
       -0.09844
 33
       -0.83784
999
Fixed Shading:SHADING GROUP 1 FACE 73
  0
3DFACE
  8
Fixed Shading
 62
  9
 10
        0.67821
 20
       -0.09844
 30
       -0.83784
 11
        0.33179
 21
       -0.10193
 31
       -0.63787
 12
        0.33179
 22
       -0.50187
 32
       -0.64485
 13
        0.67821
 23
       -0.49838
 33
       -0.84482
999
Fixed Shading:Mir-SHADING GROUP 1 FACE 73
  0
3DFACE
  8
Fixed Shading
 62
  9
 10
        0.67821
 20
       -0.49838
 30
       -0.84482
 11
        0.33179
 21
       -0.50187
 31
       -0.64485
 12
        0.33179
 22
       -0.10193
 32
       -0.63787
 13
        0.67821
 23
       -0.09844
 33
       -0.83784
999
Fixed Shading:SHADING GROUP 1 FACE 74
  0
3DFACE
  8
Fixed Shading
 62
  9
 10
        0.68021
 20
       -0.49844
 30
       -0.84135
 11
        0.33379
 21
       -0.50193
 31
       -0.64138
 12
        0.33379
 22
       -0.10199
 32
       -0.63440
 13
        0.68021
 23
       -0.09850
 33
       -0.83437
999
Fixed Shading:Mir-SHADING GROUP 1 FACE 74
  0
3DFACE
  8
Fixed Shading
 62
  9
 10
        0.68021
 20
       -0.09850
 30
       -0.83437
 11
        0.33379
 21
       -0.10199
 31
       -0.63440
 12
        0.33379
 22
       -0.50193
 32
       -0.64138
 13
        0.68021
 23
       -0.49844
 33
       -0.84135
999
Fixed Shading:SHADING GROUP 1 FACE 75
  0
3DFACE
  8
Fixed Shading
 62
  9
 10
        0.67821
 20
       -0.49838
 30
       -0.84482
 11
        0.68021
 21
       -0.09850
 31
       -0.83437
 12
        0.67821
 22
       -0.09844
 32
       -0.83784
 13
        0.67821
 23
       -0.09844
 33
       -0.83784
999
Fixed Shading:Mir-SHADING GROUP 1 FACE 75
  0
3DFACE
  8
Fixed Shading
 62
  9
 10
        0.67821
 20
       -0.09844
 30
       -0.83784
 11
        0.68021
 21
       -0.09850
 31
       -0.83437
 12
        0.67821
 22
       -0.49838
 32
       -0.84482
 13
        0.67821
 23
       -0.49838
 33
       -0.84482
999
Fixed Shading:SHADING GROUP 1 FACE 76
  0
3DFACE
  8
Fixed Shading
 62
  9
 10
        0.33179
 20
       -0.50187
 30
       -0.64485
 11
        0.68021
 21
       -0.49844
 31
       -0.84135
 12
        0.67821
 22
       -0.49838
 32
       -0.84482
 13
        0.67821
 23
       -0.49838
 33
       -0.84482
999
Fixed Shading:Mir-SHADING GROUP 1 FACE 76
  0
3DFACE
  8
Fixed Shading
 62
  9
 10
        0.67821
 20
       -0.49838
 30
       -0.84482
 11
        0.68021
 21
       -0.49844
 31
       -0.84135
 12
        0.33179
 22
       -0.50187
 32
       -0.64485
 13
        0.33179
 23
       -0.50187
 33
       -0.64485
999
Fixed Shading:SHADING GROUP 1 FACE 77
  0
3DFACE
  8
Fixed Shading
 62
  9
 10
        0.33179
 20
       -0.10193
 30
       -0.63787
 11
        0.33379
 21
       -0.50193
 31
       -0.64138
 12
        0.33179
 22
       -0.50187
 32
       -0.64485
 13
        0.33179
 23
       -0.50187
 33
       -0.64485
999
Fixed Shading:Mir-SHADING GROUP 1 FACE 77
  0
3DFACE
  8
Fixed Shading
 62
  9
 10
        0.33179
 20
       -0.50187
 30
       -0.64485
 11
        0.33379
 21
       -0.50193
 31
       -0.64138
 12
        0.33179
 22
       -0.10193
 32
       -0.63787
 13
        0.33179
 23
       -0.10193
 33
       -0.63787
999
Fixed Shading:SHADING GROUP 1 FACE 78
  0
3DFACE
  8
Fixed Shading
 62
  9
 10
        0.67821
 20
       -0.09844
 30
       -0.83784
 11
        0.33379
 21
       -0.10199
 31
       -0.63440
 12
        0.33179
 22
       -0.10193
 32
       -0.63787
 13
        0.33179
 23
       -0.10193
 33
       -0.63787
999
Fixed Shading:Mir-SHADING GROUP 1 FACE 78
  0
3DFACE
  8
Fixed Shading
 62
  9
 10
        0.33179
 20
       -0.10193
 30
       -0.63787
 11
        0.33379
 21
       -0.10199
 31
       -0.63440
 12
        0.67821
 22
       -0.09844
 32
       -0.83784
 13
        0.67821
 23
       -0.09844
 33
       -0.83784
999
Fixed Shading:SHADING GROUP 1 FACE 79
  0
3DFACE
  8
Fixed Shading
 62
  9
 10
        0.17821
 20
       -0.09844
 30
       -0.83784
 11
       -0.16821
 21
       -0.10193
 31
       -0.63787
 12
       -0.16821
 22
       -0.50187
 32
       -0.64485
 13
        0.17821
 23
       -0.49838
 33
       -0.84482
999
Fixed Shading:Mir-SHADING GROUP 1 FACE 79
  0
3DFACE
  8
Fixed Shading
 62
  9
 10
        0.17821
 20
       -0.49838
 30
       -0.84482
 11
       -0.16821
 21
       -0.50187
 31
       -0.64485
 12
       -0.16821
 22
       -0.10193
 32
       -0.63787
 13
        0.17821
 23
       -0.09844
 33
       -0.83784
999
Fixed Shading:SHADING GROUP 1 FACE 80
  0
3DFACE
  8
Fixed Shading
 62
  9
 10
        0.18021
 20
       -0.49844
 30
       -0.84135
 11
       -0.16621
 21
       -0.50193
 31
       -0.64138
 12
       -0.16621
 22
       -0.10199
 32
       -0.63440
 13
        0.18021
 23
       -0.09850
 33
       -0.83437
999
Fixed Shading:Mir-SHADING GROUP 1 FACE 80
  0
3DFACE
  8
Fixed Shading
 62
  9
 10
        0.18021
 20
       -0.09850
 30
       -0.83437
 11
       -0.16621
 21
       -0.10199
 31
       -0.63440
 12
       -0.16621
 22
       -0.50193
 32
       -0.64138
 13
        0.18021
 23
       -0.49844
 33
       -0.84135
999
Fixed Shading:SHADING GROUP 1 FACE 81
  0
3DFACE
  8
Fixed Shading
 62
  9
 10
        0.17821
 20
       -0.49838
 30
       -0.84482
 11
        0.18021
 21
       -0.09850
 31
       -0.83437
 12
        0.17821
 22
       -0.09844
 32
       -0.83784
 13
        0.17821
 23
       -0.09844
 33
       -0.83784
999
Fixed Shading:Mir-SHADING GROUP 1 FACE 81
  0
3DFACE
  8
Fixed Shading
 62
  9
 10
        0.17821
 20
       -0.09844
 30
       -0.83784
 11
        0.18021
 21
       -0.09850
 31
       -0.83437
 12
        0.17821
 22
       -0.49838
 32
       -0.84482
 13
        0.17821
 23
       -0.49838
 33
       -0.84482
999
Fixed Shading:SHADING GROUP 1 FACE 82
  0
3DFACE
  8
Fixed Shading
 62
  9
 10
       -0.16821
 20
       -0.50187
 30
       -0.64485
 11
        0.18021
 21
       -0.49844
 31
       -0.84135
 12
        0.17821
 22
       -0.49838
 32
       -0.84482
 13
        0.17821
 23
       -0.49838
 33
       -0.84482
999
Fixed Shading:Mir-SHADING GROUP 1 FACE 82
  0
3DFACE
  8
Fixed Shading
 62
  9
 10
        0.17821
 20
       -0.49838
 30
       -0.84482
 11
        0.18021
 21
       -0.49844
 31
       -0.84135
 12
       -0.16821
 22
       -0.50187
 32
       -0.64485
 13
       -0.16821
 23
       -0.50187
 33
       -0.64485
999
Fixed Shading:SHADING GROUP 1 FACE 83
  0
3DFACE
  8
Fixed Shading
 62
  9
 10
       -0.16821
 20
       -0.10193
 30
       -0.63787
 11
       -0.16621
 21
       -0.50193
 31
       -0.64138
 12
       -0.16821
 22
       -0.50187
 32
       -0.64485
 13
       -0.16821
 23
       -0.50187
 33
       -0.64485
999
Fixed Shading:Mir-SHADING GROUP 1 FACE 83
  0
3DFACE
  8
Fixed Shading
 62
  9
 10
       -0.16821
 20
       -0.50187
 30
       -0.64485
 11
       -0.16621
 21
       -0.50193
 31
       -0.64138
 12
       -0.16821
 22
       -0.10193
 32
       -0.63787
 13
       -0.16821
 23
       -0.10193
 33
       -0.63787
999
Fixed Shading:SHADING GROUP 1 FACE 84
  0
3DFACE
  8
Fixed Shading
 62
  9
 10
        0.17821
 20
       -0.09844
 30
       -0.83784
 11
       -0.16621
 21
       -0.10199
 31
       -0.63440
 12
       -0.16821
 22
       -0.10193
 32
       -0.63787
 13
       -0.16821
 23
       -0.10193
 33
       -0.63787
999
Fixed Shading:Mir-SHADING GROUP 1 FACE 84
  0
3DFACE
  8
Fixed Shading
 62
  9
 10
       -0.16821
 20
       -0.10193
 30
       -0.63787
 11
       -0.16621
 21
       -0.10199
 31
       -0.63440
 12
        0.17821
 22
       -0.09844
 32
       -0.83784
 13
        0.17821
 23
       -0.09844
 33
       -0.83784
999
Fixed Shading:SHADING GROUP 1 FACE 85
  0
3DFACE
  8
Fixed Shading
 62
  9
 10
       -0.32179
 20
       -0.09844
 30
       -0.83784
 11
       -0.66821
 21
       -0.10193
 31
       -0.63787
 12
       -0.66821
 22
       -0.50187
 32
       -0.64485
 13
       -0.32179
 23
       -0.49838
 33
       -0.84482
999
Fixed Shading:Mir-SHADING GROUP 1 FACE 85
  0
3DFACE
  8
Fixed Shading
 62
  9
 10
       -0.32179
 20
       -0.49838
 30
       -0.84482
 11
       -0.66821
 21
       -0.50187
 31
       -0.64485
 12
       -0.66821
 22
       -0.10193
 32
       -0.63787
 13
       -0.32179
 23
       -0.09844
 33
       -0.83784
999
Fixed Shading:SHADING GROUP 1 FACE 86
  0
3DFACE
  8
Fixed Shading
 62
  9
 10
       -0.31979
 20
       -0.49844
 30
       -0.84135
 11
       -0.66621
 21
       -0.50193
 31
       -0.64138
 12
       -0.66621
 22
       -0.10199
 32
       -0.63440
 13
       -0.31979
 23
       -0.09850
 33
       -0.83437
999
Fixed Shading:Mir-SHADING GROUP 1 FACE 86
  0
3DFACE
  8
Fixed Shading
 62
  9
 10
       -0.31979
 20
       -0.09850
 30
       -0.83437
 11
       -0.66621
 21
       -0.10199
 31
       -0.63440
 12
       -0.66621
 22
       -0.50193
 32
       -0.64138
 13
       -0.31979
 23
       -0.49844
 33
       -0.84135
999
Fixed Shading:SHADING GROUP 1 FACE 87
  0
3DFACE
  8
Fixed Shading
 62
  9
 10
       -0.32179
 20
       -0.49838
 30
       -0.84482
 11
       -0.31979
 21
       -0.09850
 31
       -0.83437
 12
       -0.32179
 22
       -0.09844
 32
       -0.83784
 13
       -0.32179
 23
       -0.09844
 33
       -0.83784
999
Fixed Shading:Mir-SHADING GROUP 1 FACE 87
  0
3DFACE
  8
Fixed Shading
 62
  9
 10
       -0.32179
 20
       -0.09844
 30
       -0.83784
 11
       -0.31979
 21
       -0.09850
 31
       -0.83437
 12
       -0.32179
 22
       -0.49838
 32
       -0.84482
 13
       -0.32179
 23
       -0.49838
 33
       -0.84482
999
Fixed Shading:SHADING GROUP 1 FACE 88
  0
3DFACE
  8
Fixed Shading
 62
  9
 10
       -0.66821
 20
       -0.50187
 30
       -0.64485
 11
       -0.31979
 21
       -0.49844
 31
       -0.84135
 12
       -0.32179
 22
       -0.49838
 32
       -0.84482
 13
       -0.32179
 23
       -0.49838
 33
       -0.84482
999
Fixed Shading:Mir-SHADING GROUP 1 FACE 88
  0
3DFACE
  8
Fixed Shading
 62
  9
 10
       -0.32179
 20
       -0.49838
 30
       -0.84482
 11
       -0.31979
 21
       -0.49844
 31
       -0.84135
 12
       -0.66821
 22
       -0.50187
 32
       -0.64485
 13
       -0.66821
 23
       -0.50187
 33
       -0.64485
999
Fixed Shading:SHADING GROUP 1 FACE 89
  0
3DFACE
  8
Fixed Shading
 62
  9
 10
       -0.66821
 20
       -0.10193
 30
       -0.63787
 11
       -0.66621
 21
       -0.50193
 31
       -0.64138
 12
       -0.66821
 22
       -0.50187
 32
       -0.64485
 13
       -0.66821
 23
       -0.50187
 33
       -0.64485
999
Fixed Shading:Mir-SHADING GROUP 1 FACE 89
  0
3DFACE
  8
Fixed Shading
 62
  9
 10
       -0.66821
 20
       -0.50187
 30
       -0.64485
 11
       -0.66621
 21
       -0.50193
 31
       -0.64138
 12
       -0.66821
 22
       -0.10193
 32
       -0.63787
 13
       -0.66821
 23
       -0.10193
 33
       -0.63787
999
Fixed Shading:SHADING GROUP 1 FACE 90
  0
3DFACE
  8
Fixed Shading
 62
  9
 10
       -0.32179
 20
       -0.09844
 30
       -0.83784
 11
       -0.66621
 21
       -0.10199
 31
       -0.63440
 12
       -0.66821
 22
       -0.10193
 32
       -0.63787
 13
       -0.66821
 23
       -0.10193
 33
       -0.63787
999
Fixed Shading:Mir-SHADING GROUP 1 FACE 90
  0
3DFACE
  8
Fixed Shading
 62
  9
 10
       -0.66821
 20
       -0.10193
 30
       -0.63787
 11
       -0.66621
 21
       -0.10199
 31
       -0.63440
 12
       -0.32179
 22
       -0.09844
 32
       -0.83784
 13
       -0.32179
 23
       -0.09844
 33
       -0.83784
999
Fixed Shading:SHADING GROUP 1 FACE 91
  0
3DFACE
  8
Fixed Shading
 62
  9
 10
       -0.82179
 20
       -0.09844
 30
       -0.83784
 11
       -1.16821
 21
       -0.10193
 31
       -0.63787
 12
       -1.16821
 22
       -0.50187
 32
       -0.64485
 13
       -0.82179
 23
       -0.49838
 33
       -0.84482
999
Fixed Shading:Mir-SHADING GROUP 1 FACE 91
  0
3DFACE
  8
Fixed Shading
 62
  9
 10
       -0.82179
 20
       -0.49838
 30
       -0.84482
 11
       -1.16821
 21
       -0.50187
 31
       -0.64485
 12
       -1.16821
 22
       -0.10193
 32
       -0.63787
 13
       -0.82179
 23
       -0.09844
 33
       -0.83784
999
Fixed Shading:SHADING GROUP 1 FACE 92
  0
3DFACE
  8
Fixed Shading
 62
  9
 10
       -0.81979
 20
       -0.49844
 30
       -0.84135
 11
       -1.16621
 21
       -0.50193
 31
       -0.64138
 12
       -1.16621
 22
       -0.10199
 32
       -0.63440
 13
       -0.81979
 23
       -0.09850
 33
       -0.83437
999
Fixed Shading:Mir-SHADING GROUP 1 FACE 92
  0
3DFACE
  8
Fixed Shading
 62
  9
 10
       -0.81979
 20
       -0.09850
 30
       -0.83437
 11
       -1.16621
 21
       -0.10199
 31
       -0.63440
 12
       -1.16621
 22
       -0.50193
 32
       -0.64138
 13
       -0.81979
 23
       -0.49844
 33
       -0.84135
999
Fixed Shading:SHADING GROUP 1 FACE 93
  0
3DFACE
  8
Fixed Shading
 62
  9
 10
       -0.82179
 20
       -0.49838
 30
       -0.84482
 11
       -0.81979
 21
       -0.09850
 31
       -0.83437
 12
       -0.82179
 22
       -0.09844
 32
       -0.83784
 13
       -0.82179
 23
       -0.09844
 33
       -0.83784
999
Fixed Shading:Mir-SHADING GROUP 1 FACE 93
  0
3DFACE
  8
Fixed Shading
 62
  9
 10
       -0.82179
 20
       -0.09844
 30
       -0.83784
 11
       -0.81979
 21
       -0.09850
 31
       -0.83437
 12
       -0.82179
 22
       -0.49838
 32
       -0.84482
 13
       -0.82179
 23
       -0.49838
 33
       -0.84482
999
Fixed Shading:SHADING GROUP 1 FACE 94
  0
3DFACE
  8
Fixed Shading
 62
  9
 10
       -1.16821
 20
       -0.50187
 30
       -0.64485
 11
       -0.81979
 21
       -0.49844
 31
       -0.84135
 12
       -0.82179
 22
       -0.49838
 32
       -0.84482
 13
       -0.82179
 23
       -0.49838
 33
       -0.84482
999
Fixed Shading:Mir-SHADING GROUP 1 FACE 94
  0
3DFACE
  8
Fixed Shading
 62
  9
 10
       -0.82179
 20
       -0.49838
 30
       -0.84482
 11
       -0.81979
 21
       -0.49844
 31
       -0.84135
 12
       -1.16821
 22
       -0.50187
 32
       -0.64485
 13
       -1.16821
 23
       -0.50187
 33
       -0.64485
999
Fixed Shading:SHADING GROUP 1 FACE 95
  0
3DFACE
  8
Fixed Shading
 62
  9
 10
       -1.16821
 20
       -0.10193
 30
       -0.63787
 11
       -1.16621
 21
       -0.50193
 31
       -0.64138
 12
       -1.16821
 22
       -0.50187
 32
       -0.64485
 13
       -1.16821
 23
       -0.50187
 33
       -0.64485
999
Fixed Shading:Mir-SHADING GROUP 1 FACE 95
  0
3DFACE
  8
Fixed Shading
 62
  9
 10
       -1.16821
 20
       -0.50187
 30
       -0.64485
 11
       -1.16621
 21
       -0.50193
 31
       -0.64138
 12
       -1.16821
 22
       -0.10193
 32
       -0.63787
 13
       -1.16821
 23
       -0.10193
 33
       -0.63787
999
Fixed Shading:SHADING GROUP 1 FACE 96
  0
3DFACE
  8
Fixed Shading
 62
  9
 10
       -0.82179
 20
       -0.09844
 30
       -0.83784
 11
       -1.16621
 21
       -0.10199
 31
       -0.63440
 12
       -1.16821
 22
       -0.10193
 32
       -0.63787
 13
       -1.16821
 23
       -0.10193
 33
       -0.63787
999
Fixed Shading:Mir-SHADING GROUP 1 FACE 96
  0
3DFACE
  8
Fixed Shading
 62
  9
 10
       -1.16821
 20
       -0.10193
 30
       -0.63787
 11
       -1.16621
 21
       -0.10199
 31
       -0.63440
 12
       -0.82179
 22
       -0.09844
 32
       -0.83784
 13
       -0.82179
 23
       -0.09844
 33
       -0.83784
999
Fixed Shading:SHADING GROUP 1 FACE 97
  0
3DFACE
  8
Fixed Shading
 62
  9
 10
       -1.32179
 20
       -0.09844
 30
       -0.83784
 11
       -1.66821
 21
       -0.10193
 31
       -0.63787
 12
       -1.66821
 22
       -0.50187
 32
       -0.64485
 13
       -1.32179
 23
       -0.49838
 33
       -0.84482
999
Fixed Shading:Mir-SHADING GROUP 1 FACE 97
  0
3DFACE
  8
Fixed Shading
 62
  9
 10
       -1.32179
 20
       -0.49838
 30
       -0.84482
 11
       -1.66821
 21
       -0.50187
 31
       -0.64485
 12
       -1.66821
 22
       -0.10193
 32
       -0.63787
 13
       -1.32179
 23
       -0.09844
 33
       -0.83784
999
Fixed Shading:SHADING GROUP 1 FACE 98
  0
3DFACE
  8
Fixed Shading
 62
  9
 10
       -1.31979
 20
       -0.49844
 30
       -0.84135
 11
       -1.66621
 21
       -0.50193
 31
       -0.64138
 12
       -1.66621
 22
       -0.10199
 32
       -0.63440
 13
       -1.31979
 23
       -0.09850
 33
       -0.83437
999
Fixed Shading:Mir-SHADING GROUP 1 FACE 98
  0
3DFACE
  8
Fixed Shading
 62
  9
 10
       -1.31979
 20
       -0.09850
 30
       -0.83437
 11
       -1.66621
 21
       -0.10199
 31
       -0.63440
 12
       -1.66621
 22
       -0.50193
 32
       -0.64138
 13
       -1.31979
 23
       -0.49844
 33
       -0.84135
999
Fixed Shading:SHADING GROUP 1 FACE 99
  0
3DFACE
  8
Fixed Shading
 62
  9
 10
       -1.32179
 20
       -0.49838
 30
       -0.84482
 11
       -1.31979
 21
       -0.09850
 31
       -0.83437
 12
       -1.32179
 22
       -0.09844
 32
       -0.83784
 13
       -1.32179
 23
       -0.09844
 33
       -0.83784
999
Fixed Shading:Mir-SHADING GROUP 1 FACE 99
  0
3DFACE
  8
Fixed Shading
 62
  9
 10
       -1.32179
 20
       -0.09844
 30
       -0.83784
 11
       -1.31979
 21
       -0.09850
 31
       -0.83437
 12
       -1.32179
 22
       -0.49838
 32
       -0.84482
 13
       -1.32179
 23
       -0.49838
 33
       -0.84482
999
Fixed Shading:SHADING GROUP 1 FACE 100
  0
3DFACE
  8
Fixed Shading
 62
  9
 10
       -1.66821
 20
       -0.50187
 30
       -0.64485
 11
       -1.31979
 21
       -0.49844
 31
       -0.84135
 12
       -1.32179
 22
       -0.49838
 32
       -0.84482
 13
       -1.32179
 23
       -0.49838
 33
       -0.84482
999
Fixed Shading:Mir-SHADING GROUP 1 FACE 100
  0
3DFACE
  8
Fixed Shading
 62
  9
 10
       -1.32179
 20
       -0.49838
 30
       -0.84482
 11
       -1.31979
 21
       -0.49844
 31
       -0.84135
 12
       -1.66821
 22
       -0.50187
 32
       -0.64485
 13
       -1.66821
 23
       -0.50187
 33
       -0.64485
999
Fixed Shading:SHADING GROUP 1 FACE 101
  0
3DFACE
  8
Fixed Shading
 62
  9
 10
       -1.66821
 20
       -0.10193
 30
       -0.63787
 11
       -1.66621
 21
       -0.50193
 31
       -0.64138
 12
       -1.66821
 22
       -0.50187
 32
       -0.64485
 13
       -1.66821
 23
       -0.50187
 33
       -0.64485
999
Fixed Shading:Mir-SHADING GROUP 1 FACE 101
  0
3DFACE
  8
Fixed Shading
 62
  9
 10
       -1.66821
 20
       -0.50187
 30
       -0.64485
 11
       -1.66621
 21
       -0.50193
 31
       -0.64138
 12
       -1.66821
 22
       -0.10193
 32
       -0.63787
 13
       -1.66821
 23
       -0.10193
 33
       -0.63787
999
Fixed Shading:SHADING GROUP 1 FACE 102
  0
3DFACE
  8
Fixed Shading
 62
  9
 10
       -1.32179
 20
       -0.09844
 30
       -0.83784
 11
       -1.66621
 21
       -0.10199
 31
       -0.63440
 12
       -1.66821
 22
       -0.10193
 32
       -0.63787
 13
       -1.66821
 23
       -0.10193
 33
       -0.63787
999
Fixed Shading:Mir-SHADING GROUP 1 FACE 102
  0
3DFACE
  8
Fixed Shading
 62
  9
 10
       -1.66821
 20
       -0.10193
 30
       -0.63787
 11
       -1.66621
 21
       -0.10199
 31
       -0.63440
 12
       -1.32179
 22
       -0.09844
 32
       -0.83784
 13
       -1.32179
 23
       -0.09844
 33
       -0.83784
999
Fixed Shading:SHADING GROUP 1 FACE 103
  0
3DFACE
  8
Fixed Shading
 62
  9
 10
       -1.82179
 20
       -0.09844
 30
       -0.83784
 11
       -2.16821
 21
       -0.10193
 31
       -0.63787
 12
       -2.16821
 22
       -0.50187
 32
       -0.64485
 13
       -1.82179
 23
       -0.49838
 33
       -0.84482
999
Fixed Shading:Mir-SHADING GROUP 1 FACE 103
  0
3DFACE
  8
Fixed Shading
 62
  9
 10
       -1.82179
 20
       -0.49838
 30
       -0.84482
 11
       -2.16821
 21
       -0.50187
 31
       -0.64485
 12
       -2.16821
 22
       -0.10193
 32
       -0.63787
 13
       -1.82179
 23
       -0.09844
 33
       -0.83784
999
Fixed Shading:SHADING GROUP 1 FACE 104
  0
3DFACE
  8
Fixed Shading
 62
  9
 10
       -1.81979
 20
       -0.49844
 30
       -0.84135
 11
       -2.16621
 21
       -0.50193
 31
       -0.64138
 12
       -2.16621
 22
       -0.10199
 32
       -0.63440
 13
       -1.81979
 23
       -0.09850
 33
       -0.83437
999
Fixed Shading:Mir-SHADING GROUP 1 FACE 104
  0
3DFACE
  8
Fixed Shading
 62
  9
 10
       -1.81979
 20
       -0.09850
 30
       -0.83437
 11
       -2.16621
 21
       -0.10199
 31
       -0.63440
 12
       -2.16621
 22
       -0.50193
 32
       -0.64138
 13
       -1.81979
 23
       -0.49844
 33
       -0.84135
999
Fixed Shading:SHADING GROUP 1 FACE 105
  0
3DFACE
  8
Fixed Shading
 62
  9
 10
       -1.82179
 20
       -0.49838
 30
       -0.84482
 11
       -1.81979
 21
       -0.09850
 31
       -0.83437
 12
       -1.82179
 22
       -0.09844
 32
       -0.83784
 13
       -1.82179
 23
       -0.09844
 33
       -0.83784
999
Fixed Shading:Mir-SHADING GROUP 1 FACE 105
  0
3DFACE
  8
Fixed Shading
 62
  9
 10
       -1.82179
 20
       -0.09844
 30
       -0.83784
 11
       -1.81979
 21
       -0.09850
 31
       -0.83437
 12
       -1.82179
 22
       -0.49838
 32
       -0.84482
 13
       -1.82179
 23
       -0.49838
 33
       -0.84482
999
Fixed Shading:SHADING GROUP 1 FACE 106
  0
3DFACE
  8
Fixed Shading
 62
  9
 10
       -2.16821
 20
       -0.50187
 30
       -0.64485
 11
       -1.81979
 21
       -0.49844
 31
       -0.84135
 12
       -1.82179
 22
       -0.49838
 32
       -0.84482
 13
       -1.82179
 23
       -0.49838
 33
       -0.84482
999
Fixed Shading:Mir-SHADING GROUP 1 FACE 106
  0
3DFACE
  8
Fixed Shading
 62
  9
 10
       -1.82179
 20
       -0.49838
 30
       -0.84482
 11
       -1.81979
 21
       -0.49844
 31
       -0.84135
 12
       -2.16821
 22
       -0.50187
 32
       -0.64485
 13
       -2.16821
 23
       -0.50187
 33
       -0.64485
999
Fixed Shading:SHADING GROUP 1 FACE 107
  0
3DFACE
  8
Fixed Shading
 62
  9
 10
       -2.16821
 20
       -0.10193
 30
       -0.63787
 11
       -2.16621
 21
       -0.50193
 31
       -0.64138
 12
       -2.16821
 22
       -0.50187
 32
       -0.64485
 13
       -2.16821
 23
       -0.50187
 33
       -0.64485
999
Fixed Shading:Mir-SHADING GROUP 1 FACE 107
  0
3DFACE
  8
Fixed Shading
 62
  9
 10
       -2.16821
 20
       -0.50187
 30
       -0.64485
 11
       -2.16621
 21
       -0.50193
 31
       -0.64138
 12
       -2.16821
 22
       -0.10193
 32
       -0.63787
 13
       -2.16821
 23
       -0.10193
 33
       -0.63787
999
Fixed Shading:SHADING GROUP 1 FACE 108
  0
3DFACE
  8
Fixed Shading
 62
  9
 10
       -1.82179
 20
       -0.09844
 30
       -0.83784
 11
       -2.16621
 21
       -0.10199
 31
       -0.63440
 12
       -2.16821
 22
       -0.10193
 32
       -0.63787
 13
       -2.16821
 23
       -0.10193
 33
       -0.63787
999
Fixed Shading:Mir-SHADING GROUP 1 FACE 108
  0
3DFACE
  8
Fixed Shading
 62
  9
 10
       -2.16821
 20
       -0.10193
 30
       -0.63787
 11
       -2.16621
 21
       -0.10199
 31
       -0.63440
 12
       -1.82179
 22
       -0.09844
 32
       -0.83784
 13
       -1.82179
 23
       -0.09844
 33
       -0.83784
999
Fixed Shading:SHADING GROUP 1 FACE 109
  0
3DFACE
  8
Fixed Shading
 62
  9
 10
        2.17821
 20
       -0.20518
 30
       -0.05162
 11
        1.83179
 21
       -0.40515
 31
       -0.04813
 12
        1.83179
 22
       -0.41213
 32
       -0.44807
 13
        2.17821
 23
       -0.21216
 33
       -0.45156
999
Fixed Shading:Mir-SHADING GROUP 1 FACE 109
  0
3DFACE
  8
Fixed Shading
 62
  9
 10
        2.17821
 20
       -0.21216
 30
       -0.45156
 11
        1.83179
 21
       -0.41213
 31
       -0.44807
 12
        1.83179
 22
       -0.40515
 32
       -0.04813
 13
        2.17821
 23
       -0.20518
 33
       -0.05162
999
Fixed Shading:SHADING GROUP 1 FACE 110
  0
3DFACE
  8
Fixed Shading
 62
  9
 10
        2.18021
 20
       -0.21563
 30
       -0.45150
 11
        1.83379
 21
       -0.41560
 31
       -0.44801
 12
        1.83379
 22
       -0.40862
 32
       -0.04807
 13
        2.18021
 23
       -0.20865
 33
       -0.05156
999
Fixed Shading:Mir-SHADING GROUP 1 FACE 110
  0
3DFACE
  8
Fixed Shading
[...]
 11
       -0.16621
 21
       -0.10199
 31
        1.36560
 12
       -0.16821
 22
       -0.10193
 32
        1.36213
 13
       -0.16821
 23
       -0.10193
 33
        1.36213
999
Fixed Shading:Mir-SHADING GROUP 1 FACE 300
  0
3DFACE
  8
Fixed Shading
 62
  9
 10
       -0.16821
 20
       -0.10193
 30
        1.36213
 11
       -0.16621
 21
       -0.10199
 31
        1.36560
 12
        0.17821
 22
       -0.09844
 32
        1.16216
 13
        0.17821
 23
       -0.09844
 33
        1.16216
999
Fixed Shading:SHADING GROUP 1 FACE 301
  0
3DFACE
  8
Fixed Shading
 62
  9
 10
       -0.32179
 20
       -0.09844
 30
        1.16216
 11
       -0.66821
 21
       -0.10193
 31
        1.36213
 12
       -0.66821
 22
       -0.50187
 32
        1.35515
 13
       -0.32179
 23
       -0.49838
 33
        1.15518
999
Fixed Shading:Mir-SHADING GROUP 1 FACE 301
  0
3DFACE
  8
Fixed Shading
 62
  9
 10
       -0.32179
 20
       -0.49838
 30
        1.15518
 11
       -0.66821
 21
       -0.50187
 31
        1.35515
 12
       -0.66821
 22
       -0.10193
 32
        1.36213
 13
       -0.32179
 23
       -0.09844
 33
        1.16216
999
Fixed Shading:SHADING GROUP 1 FACE 302
  0
3DFACE
  8
Fixed Shading
 62
  9
 10
       -0.31979
 20
       -0.49844
 30
        1.15865
 11
       -0.66621
 21
       -0.50193
 31
        1.35862
 12
       -0.66621
 22
       -0.10199
 32
        1.36560
 13
       -0.31979
 23
       -0.09850
 33
        1.16563
999
Fixed Shading:Mir-SHADING GROUP 1 FACE 302
  0
3DFACE
  8
Fixed Shading
 62
  9
 10
       -0.31979
 20
       -0.09850
 30
        1.16563
 11
       -0.66621
 21
       -0.10199
 31
        1.36560
 12
       -0.66621
 22
       -0.50193
 32
        1.35862
 13
       -0.31979
 23
       -0.49844
 33
        1.15865
999
Fixed Shading:SHADING GROUP 1 FACE 303
  0
3DFACE
  8
Fixed Shading
 62
  9
 10
       -0.32179
 20
       -0.49838
 30
        1.15518
 11
       -0.31979
 21
       -0.09850
 31
        1.16563
 12
       -0.32179
 22
       -0.09844
 32
        1.16216
 13
       -0.32179
 23
       -0.09844
 33
        1.16216
999
Fixed Shading:Mir-SHADING GROUP 1 FACE 303
  0
3DFACE
  8
Fixed Shading
 62
  9
 10
       -0.32179
 20
       -0.09844
 30
        1.16216
 11
       -0.31979
 21
       -0.09850
 31
        1.16563
 12
       -0.32179
 22
       -0.49838
 32
        1.15518
 13
       -0.32179
 23
       -0.49838
 33
        1.15518
999
Fixed Shading:SHADING GROUP 1 FACE 304
  0
3DFACE
  8
Fixed Shading
 62
  9
 10
       -0.66821
 20
       -0.50187
 30
        1.35515
 11
       -0.31979
 21
       -0.49844
 31
        1.15865
 12
       -0.32179
 22
       -0.49838
 32
        1.15518
 13
       -0.32179
 23
       -0.49838
 33
        1.15518
999
Fixed Shading:Mir-SHADING GROUP 1 FACE 304
  0
3DFACE
  8
Fixed Shading
 62
  9
 10
       -0.32179
 20
       -0.49838
 30
        1.15518
 11
       -0.31979
 21
       -0.49844
 31
        1.15865
 12
       -0.66821
 22
       -0.50187
 32
        1.35515
 13
       -0.66821
 23
       -0.50187
 33
        1.35515
999
Fixed Shading:SHADING GROUP 1 FACE 305
  0
3DFACE
  8
Fixed Shading
 62
  9
 10
       -0.66821
 20
       -0.10193
 30
        1.36213
 11
       -0.66621
 21
       -0.50193
 31
        1.35862
 12
       -0.66821
 22
       -0.50187
 32
        1.35515
 13
       -0.66821
 23
       -0.50187
 33
        1.35515
999
Fixed Shading:Mir-SHADING GROUP 1 FACE 305
  0
3DFACE
  8
Fixed Shading
 62
  9
 10
       -0.66821
 20
       -0.50187
 30
        1.35515
 11
       -0.66621
 21
       -0.50193
 31
        1.35862
 12
       -0.66821
 22
       -0.10193
 32
        1.36213
 13
       -0.66821
 23
       -0.10193
 33
        1.36213
999
Fixed Shading:SHADING GROUP 1 FACE 306
  0
3DFACE
  8
Fixed Shading
 62
  9
 10
       -0.32179
 20
       -0.09844
 30
        1.16216
 11
       -0.66621
 21
       -0.10199
 31
        1.36560
 12
       -0.66821
 22
       -0.10193
 32
        1.36213
 13
       -0.66821
 23
       -0.10193
 33
        1.36213
999
Fixed Shading:Mir-SHADING GROUP 1 FACE 306
  0
3DFACE
  8
Fixed Shading
 62
  9
 10
       -0.66821
 20
       -0.10193
 30
        1.36213
 11
       -0.66621
 21
       -0.10199
 31
        1.36560
 12
       -0.32179
 22
       -0.09844
 32
        1.16216
 13
       -0.32179
 23
       -0.09844
 33
        1.16216
999
Fixed Shading:SHADING GROUP 1 FACE 307
  0
3DFACE
  8
Fixed Shading
 62
  9
 10
       -0.82179
 20
       -0.09844
 30
        1.16216
 11
       -1.16821
 21
       -0.10193
 31
        1.36213
 12
       -1.16821
 22
       -0.50187
 32
        1.35515
 13
       -0.82179
 23
       -0.49838
 33
        1.15518
999
Fixed Shading:Mir-SHADING GROUP 1 FACE 307
  0
3DFACE
  8
Fixed Shading
 62
  9
 10
       -0.82179
 20
       -0.49838
 30
        1.15518
 11
       -1.16821
 21
       -0.50187
 31
        1.35515
 12
       -1.16821
 22
       -0.10193
 32
        1.36213
 13
       -0.82179
 23
       -0.09844
 33
        1.16216
999
Fixed Shading:SHADING GROUP 1 FACE 308
  0
3DFACE
  8
Fixed Shading
 62
  9
 10
       -0.81979
 20
       -0.49844
 30
        1.15865
 11
       -1.16621
 21
       -0.50193
 31
        1.35862
 12
       -1.16621
 22
       -0.10199
 32
        1.36560
 13
       -0.81979
 23
       -0.09850
 33
        1.16563
999
Fixed Shading:Mir-SHADING GROUP 1 FACE 308
  0
3DFACE
  8
Fixed Shading
 62
  9
 10
       -0.81979
 20
       -0.09850
 30
        1.16563
 11
       -1.16621
 21
       -0.10199
 31
        1.36560
 12
       -1.16621
 22
       -0.50193
 32
        1.35862
 13
       -0.81979
 23
       -0.49844
 33
        1.15865
999
Fixed Shading:SHADING GROUP 1 FACE 309
  0
3DFACE
  8
Fixed Shading
 62
  9
 10
       -0.82179
 20
       -0.49838
 30
        1.15518
 11
       -0.81979
 21
       -0.09850
 31
        1.16563
 12
       -0.82179
 22
       -0.09844
 32
        1.16216
 13
       -0.82179
 23
       -0.09844
 33
        1.16216
999
Fixed Shading:Mir-SHADING GROUP 1 FACE 309
  0
3DFACE
  8
Fixed Shading
 62
  9
 10
       -0.82179
 20
       -0.09844
 30
        1.16216
 11
       -0.81979
 21
       -0.09850
 31
        1.16563
 12
       -0.82179
 22
       -0.49838
 32
        1.15518
 13
       -0.82179
 23
       -0.49838
 33
        1.15518
999
Fixed Shading:SHADING GROUP 1 FACE 310
  0
3DFACE
  8
Fixed Shading
 62
  9
 10
       -1.16821
 20
       -0.50187
 30
        1.35515
 11
       -0.81979
 21
       -0.49844
 31
        1.15865
 12
       -0.82179
 22
       -0.49838
 32
        1.15518
 13
       -0.82179
 23
       -0.49838
 33
        1.15518
999
Fixed Shading:Mir-SHADING GROUP 1 FACE 310
  0
3DFACE
  8
Fixed Shading
 62
  9
 10
       -0.82179
 20
       -0.49838
 30
        1.15518
 11
       -0.81979
 21
       -0.49844
 31
        1.15865
 12
       -1.16821
 22
       -0.50187
 32
        1.35515
 13
       -1.16821
 23
       -0.50187
 33
        1.35515
999
Fixed Shading:SHADING GROUP 1 FACE 311
  0
3DFACE
  8
Fixed Shading
 62
  9
 10
       -1.16821
 20
       -0.10193
 30
        1.36213
 11
       -1.16621
 21
       -0.50193
 31
        1.35862
 12
       -1.16821
 22
       -0.50187
 32
        1.35515
 13
       -1.16821
 23
       -0.50187
 33
        1.35515
999
Fixed Shading:Mir-SHADING GROUP 1 FACE 311
  0
3DFACE
  8
Fixed Shading
 62
  9
 10
       -1.16821
 20
       -0.50187
 30
        1.35515
 11
       -1.16621
 21
       -0.50193
 31
        1.35862
 12
       -1.16821
 22
       -0.10193
 32
        1.36213
 13
       -1.16821
 23
       -0.10193
 33
        1.36213
999
Fixed Shading:SHADING GROUP 1 FACE 312
  0
3DFACE
  8
Fixed Shading
 62
  9
 10
       -0.82179
 20
       -0.09844
 30
        1.16216
 11
       -1.16621
 21
       -0.10199
 31
        1.36560
 12
       -1.16821
 22
       -0.10193
 32
        1.36213
 13
       -1.16821
 23
       -0.10193
 33
        1.36213
999
Fixed Shading:Mir-SHADING GROUP 1 FACE 312
  0
3DFACE
  8
Fixed Shading
 62
  9
 10
       -1.16821
 20
       -0.10193
 30
        1.36213
 11
       -1.16621
 21
       -0.10199
 31
        1.36560
 12
       -0.82179
 22
       -0.09844
 32
        1.16216
 13
       -0.82179
 23
       -0.09844
 33
        1.16216
999
Fixed Shading:SHADING GROUP 1 FACE 313
  0
3DFACE
  8
Fixed Shading
 62
  9
 10
       -1.32179
 20
       -0.09844
 30
        1.16216
 11
       -1.66821
 21
       -0.10193
 31
        1.36213
 12
       -1.66821
 22
       -0.50187
 32
        1.35515
 13
       -1.32179
 23
       -0.49838
 33
        1.15518
999
Fixed Shading:Mir-SHADING GROUP 1 FACE 313
  0
3DFACE
  8
Fixed Shading
 62
  9
 10
       -1.32179
 20
       -0.49838
 30
        1.15518
 11
       -1.66821
 21
       -0.50187
 31
        1.35515
 12
       -1.66821
 22
       -0.10193
 32
        1.36213
 13
       -1.32179
 23
       -0.09844
 33
        1.16216
999
Fixed Shading:SHADING GROUP 1 FACE 314
  0
3DFACE
  8
Fixed Shading
 62
  9
 10
       -1.31979
 20
       -0.49844
 30
        1.15865
 11
       -1.66621
 21
       -0.50193
 31
        1.35862
 12
       -1.66621
 22
       -0.10199
 32
        1.36560
 13
       -1.31979
 23
       -0.09850
 33
        1.16563
999
Fixed Shading:Mir-SHADING GROUP 1 FACE 314
  0
3DFACE
  8
Fixed Shading
 62
  9
 10
       -1.31979
 20
       -0.09850
 30
        1.16563
 11
       -1.66621
 21
       -0.10199
 31
        1.36560
 12
       -1.66621
 22
       -0.50193
 32
        1.35862
 13
       -1.31979
 23
       -0.49844
 33
        1.15865
999
Fixed Shading:SHADING GROUP 1 FACE 315
  0
3DFACE
  8
Fixed Shading
 62
  9
 10
       -1.32179
 20
       -0.49838
 30
        1.15518
 11
       -1.31979
 21
       -0.09850
 31
        1.16563
 12
       -1.32179
 22
       -0.09844
 32
        1.16216
 13
       -1.32179
 23
       -0.09844
 33
        1.16216
999
Fixed Shading:Mir-SHADING GROUP 1 FACE 315
  0
3DFACE
  8
Fixed Shading
 62
  9
 10
       -1.32179
 20
       -0.09844
 30
        1.16216
 11
       -1.31979
 21
       -0.09850
 31
        1.16563
 12
       -1.32179
 22
       -0.49838
 32
        1.15518
 13
       -1.32179
 23
       -0.49838
 33
        1.15518
999
Fixed Shading:SHADING GROUP 1 FACE 316
  0
3DFACE
  8
Fixed Shading
 62
  9
 10
       -1.66821
 20
       -0.50187
 30
        1.35515
 11
       -1.31979
 21
       -0.49844
 31
        1.15865
 12
       -1.32179
 22
       -0.49838
 32
        1.15518
 13
       -1.32179
 23
       -0.49838
 33
        1.15518
999
Fixed Shading:Mir-SHADING GROUP 1 FACE 316
  0
3DFACE
  8
Fixed Shading
 62
  9
 10
       -1.32179
 20
       -0.49838
 30
        1.15518
 11
       -1.31979
 21
       -0.49844
 31
        1.15865
 12
       -1.66821
 22
       -0.50187
 32
        1.35515
 13
       -1.66821
 23
       -0.50187
 33
        1.35515
999
Fixed Shading:SHADING GROUP 1 FACE 317
  0
3DFACE
  8
Fixed Shading
 62
  9
 10
       -1.66821
 20
       -0.10193
 30
        1.36213
 11
       -1.66621
 21
       -0.50193
 31
        1.35862
 12
       -1.66821
 22
       -0.50187
 32
        1.35515
 13
       -1.66821
 23
       -0.50187
 33
        1.35515
999
Fixed Shading:Mir-SHADING GROUP 1 FACE 317
  0
3DFACE
  8
Fixed Shading
 62
  9
 10
       -1.66821
 20
       -0.50187
 30
        1.35515
 11
       -1.66621
 21
       -0.50193
 31
        1.35862
 12
       -1.66821
 22
       -0.10193
 32
        1.36213
 13
       -1.66821
 23
       -0.10193
 33
        1.36213
999
Fixed Shading:SHADING GROUP 1 FACE 318
  0
3DFACE
  8
Fixed Shading
 62
  9
 10
       -1.32179
 20
       -0.09844
 30
        1.16216
 11
       -1.66621
 21
       -0.10199
 31
        1.36560
 12
       -1.66821
 22
       -0.10193
 32
        1.36213
 13
       -1.66821
 23
       -0.10193
 33
        1.36213
999
Fixed Shading:Mir-SHADING GROUP 1 FACE 318
  0
3DFACE
  8
Fixed Shading
 62
  9
 10
       -1.66821
 20
       -0.10193
 30
        1.36213
 11
       -1.66621
 21
       -0.10199
 31
        1.36560
 12
       -1.32179
 22
       -0.09844
 32
        1.16216
 13
       -1.32179
 23
       -0.09844
 33
        1.16216
999
Fixed Shading:SHADING GROUP 1 FACE 319
  0
3DFACE
  8
Fixed Shading
 62
  9
 10
       -1.82179
 20
       -0.09844
 30
        1.16216
 11
       -2.16821
 21
       -0.10193
 31
        1.36213
 12
       -2.16821
 22
       -0.50187
 32
        1.35515
 13
       -1.82179
 23
       -0.49838
 33
        1.15518
999
Fixed Shading:Mir-SHADING GROUP 1 FACE 319
  0
3DFACE
  8
Fixed Shading
 62
  9
 10
       -1.82179
 20
       -0.49838
 30
        1.15518
 11
       -2.16821
 21
       -0.50187
 31
        1.35515
 12
       -2.16821
 22
       -0.10193
 32
        1.36213
 13
       -1.82179
 23
       -0.09844
 33
        1.16216
999
Fixed Shading:SHADING GROUP 1 FACE 320
  0
3DFACE
  8
Fixed Shading
 62
  9
 10
       -1.81979
 20
       -0.49844
 30
        1.15865
 11
       -2.16621
 21
       -0.50193
 31
        1.35862
 12
       -2.16621
 22
       -0.10199
 32
        1.36560
 13
       -1.81979
 23
       -0.09850
 33
        1.16563
999
Fixed Shading:Mir-SHADING GROUP 1 FACE 320
  0
3DFACE
  8
Fixed Shading
 62
  9
 10
       -1.81979
 20
       -0.09850
 30
        1.16563
 11
       -2.16621
 21
       -0.10199
 31
        1.36560
 12
       -2.16621
 22
       -0.50193
 32
        1.35862
 13
       -1.81979
 23
       -0.49844
 33
        1.15865
999
Fixed Shading:SHADING GROUP 1 FACE 321
  0
3DFACE
  8
Fixed Shading
 62
  9
 10
       -1.82179
 20
       -0.49838
 30
        1.15518
 11
       -1.81979
 21
       -0.09850
 31
        1.16563
 12
       -1.82179
 22
       -0.09844
 32
        1.16216
 13
       -1.82179
 23
       -0.09844
 33
        1.16216
999
Fixed Shading:Mir-SHADING GROUP 1 FACE 321
  0
3DFACE
  8
Fixed Shading
 62
  9
 10
       -1.82179
 20
       -0.09844
 30
        1.16216
 11
       -1.81979
 21
       -0.09850
 31
        1.16563
 12
       -1.82179
 22
       -0.49838
 32
        1.15518
 13
       -1.82179
 23
       -0.49838
 33
        1.15518
999
Fixed Shading:SHADING GROUP 1 FACE 322
  0
3DFACE
  8
Fixed Shading
 62
  9
 10
       -2.16821
 20
       -0.50187
 30
        1.35515
 11
       -1.81979
 21
       -0.49844
 31
        1.15865
 12
       -1.82179
 22
       -0.49838
 32
        1.15518
 13
       -1.82179
 23
       -0.49838
 33
        1.15518
999
Fixed Shading:Mir-SHADING GROUP 1 FACE 322
  0
3DFACE
  8
Fixed Shading
 62
  9
 10
       -1.82179
 20
       -0.49838
 30
        1.15518
 11
       -1.81979
 21
       -0.49844
 31
        1.15865
 12
       -2.16821
 22
       -0.50187
 32
        1.35515
 13
       -2.16821
 23
       -0.50187
 33
        1.35515
999
Fixed Shading:SHADING GROUP 1 FACE 323
  0
3DFACE
  8
Fixed Shading
 62
  9
 10
       -2.16821
 20
       -0.10193
 30
        1.36213
 11
       -2.16621
 21
       -0.50193
 31
        1.35862
 12
       -2.16821
 22
       -0.50187
 32
        1.35515
 13
       -2.16821
 23
       -0.50187
 33
        1.35515
999
Fixed Shading:Mir-SHADING GROUP 1 FACE 323
  0
3DFACE
  8
Fixed Shading
 62
  9
 10
       -2.16821
 20
       -0.50187
 30
        1.35515
 11
       -2.16621
 21
       -0.50193
 31
        1.35862
 12
       -2.16821
 22
       -0.10193
 32
        1.36213
 13
       -2.16821
 23
       -0.10193
 33
        1.36213
999
Fixed Shading:SHADING GROUP 1 FACE 324
  0
3DFACE
  8
Fixed Shading
 62
  9
 10
       -1.82179
 20
       -0.09844
 30
        1.16216
 11
       -2.16621
 21
       -0.10199
 31
        1.36560
 12
       -2.16821
 22
       -0.10193
 32
        1.36213
 13
       -2.16821
 23
       -0.10193
 33
        1.36213
999
Fixed Shading:Mir-SHADING GROUP 1 FACE 324
  0
3DFACE
  8
Fixed Shading
 62
  9
 10
       -2.16821
 20
       -0.10193
 30
        1.36213
 11
       -2.16621
 21
       -0.10199
 31
        1.36560
 12
       -1.82179
 22
       -0.09844
 32
        1.16216
 13
       -1.82179
 23
       -0.09844
 33
        1.16216
999
ZONE1:ZONE1_FACE_1
  0
3DFACE
  8
ZONE1
 62
 43
 10
        2.45000
 20
        7.00000
 30
        1.55000
 11
        2.45000
 21
        7.00000
 31
       -1.55000
 12
       -2.45000
 22
        7.00000
 32
       -1.55000
 13
       -2.45000
 23
        7.00000
 33
        1.55000
999
ZONE1:ZONE1_FACE_2
  0
3DFACE
  8
ZONE1
 62
 43
 10
        2.45000
 20
        0.00000
 30
        1.55000
 11
        2.45000
 21
        0.00000
 31
       -1.55000
 12
        2.45000
 22
        7.00000
 32
       -1.55000
 13
        2.45000
 23
        7.00000
 33
        1.55000
999
ZONE1:ZONE1_FACE_3
  0
3DFACE
  8
ZONE1
 62
 43
 10
       -2.45000
 20
        7.00000
 30
        1.55000
 11
       -2.45000
 21
        7.00000
 31
       -1.55000
 12
       -2.45000
 22
        0.00000
 32
       -1.55000
 13
       -2.45000
 23
        0.00000
 33
        1.55000
999
ZONE1:ZONE1_FACE_6
  0
3DFACE
  8
ZONE1
 62
 43
 10
       -2.45000
 20
        0.00000
 30
        1.55000
 11
       -2.45000
 21
        0.00000
 31
       -1.55000
 12
        2.45000
 22
        0.00000
 32
       -1.55000
 13
        2.45000
 23
        0.00000
 33
        1.55000
999
ZONE1:ZONE1_FACE_6_WINDOW_1
  0
3DFACE
  8
ZONE1
 62
143
 10
       -2.25000
 20
        0.00000
 30
        1.50000
 11
       -2.25000
 21
        0.00000
 31
       -1.50000
 12
        2.25000
 22
        0.00000
 32
       -1.50000
 13
        2.25000
 23
        0.00000
 33
        1.50000
999
ZONE1:ZONE1_FACE_5
  0
3DFACE
  8
ZONE1
 62
  8
 10
        2.45000
 20
        7.00000
 30
       -1.55000
 11
        2.45000
 21
        0.00000
 31
       -1.55000
 12
       -2.45000
 22
        0.00000
 32
       -1.55000
 13
       -2.45000
 23
        7.00000
 33
       -1.55000
999
ZONE1:ZONE1_FACE_4
  0
3DFACE
  8
ZONE1
 62
 15
 10
       -2.45000
 20
        7.00000
 30
        1.55000
 11
       -2.45000
 21
        0.00000
 31
        1.55000
 12
        2.45000
 22
        0.00000
 32
        1.55000
 13
        2.45000
 23
        7.00000
 33
        1.55000
999
ZONE1:DayRefPt:1
  0
CIRCLE
  8
ZONE1
 62
 10
 10
        0.00000
 20
        3.50000
 30
       -0.75000
 40
        0.20000
  0
ENDSEC
  0
EOF
