  0
SECTION
  2
ENTITIES
999
DXF created from EnergyPlus
999
Program Version,EnergyPlus-Windows-OMP-32 7.2.0.006, YMD=2014.05.14 09:15
999
Polygon Action,ThickPolyline
999
Color Scheme,Default
999
Text - True North
  0
TEXT
  8
1
  6
Continuous
 62
  3
 10
      -13.45000
 20
        2.43115
 30
        0.10000
 40
 .25
  1
True North
 41
 0.0
  7
MONOTXT
210
0.0
220
0.0
230
1.0
999
Text - Building Title
  0
TEXT
  8
1
  6
Continuous
 62
  3
 10
      -16.45000
 20
       -1.56885
 30
        0.10000
 40
 .4
  1
Building - BUILDING
 41
 0.0
  7
MONOTXT
210
0.0
220
0.0
230
1.0
999
North Arrow Stem
  0
3DFACE
  8
1
 62
  3
 10
      -12.45000
 20
        2.43115
 30
        0.10000
 11
      -12.45000
 21
        2.43115
 31
        0.00000
 12
      -12.45000
 22
       -0.56885
 32
        0.00000
 13
      -12.45000
 23
       -0.56885
 33
        0.10000
999
North Arrow Head 1
  0
3DFACE
  8
1
 62
  3
 10
      -12.45000
 20
        2.43115
 30
        0.10000
 11
      -12.45000
 21
        2.43115
 31
        0.00000
 12
      -12.95000
 22
        1.56513
 32
        0.00000
 13
      -12.95000
 23
        1.56513
 33
        0.10000
999
North Arrow Head 2
  0
3DFACE
  8
1
 62
  3
 10
      -12.45000
 20
        2.43115
 30
        0.10000
 11
      -12.45000
 21
        2.43115
 31
        0.00000
 12
      -11.95000
 22
        1.56513
 32
        0.00000
 13
      -11.95000
 23
        1.56513
 33
        0.10000
999
North Arrow Side 1
  0
3DFACE
  8
1
 62
  3
 10
      -12.95000
 20
        3.93115
 30
        0.10000
 11
      -12.95000
 21
        3.93115
 31
        0.00000
 12
      -12.95000
 22
        2.93115
 32
        0.00000
 13
      -12.95000
 23
        2.93115
 33
        0.10000
999
North Arrow Side 2
  0
3DFACE
  8
1
 62
  3
 10
      -12.95000
 20
        3.93115
 30
        0.10000
 11
      -12.95000
 21
        3.93115
 31
        0.00000
 12
      -11.95000
 22
        2.93115
 32
        0.00000
 13
      -11.95000
 23
        2.93115
 33
        0.10000
999
North Arrow Side 3
  0
3DFACE
  8
1
 62
  3
 10
      -11.95000
 20
        3.93115
 30
        0.10000
 11
      -11.95000
 21
        3.93115
 31
        0.00000
 12
      -11.95000
 22
        2.93115
 32
        0.00000
 13
      -11.95000
 23
        2.93115
 33
        0.10000
999
Zone Names
999
Zone=1:ZONE1
999
Fixed Shading:SHADING GROUP 1 FACE 1
  0
3DFACE
  8
Fixed Shading
 62
  9
 10
        2.09134
 20
       -0.28459
 30
       -0.98257
 11
        1.89134
 21
       -0.03964
 31
       -1.22752
 12
        1.89134
 22
       -0.32248
 32
       -1.51036
 13
        2.09134
 23
       -0.56743
 33
       -1.26541
999
Fixed Shading:Mir-SHADING GROUP 1 FACE 1
  0
3DFACE
  8
Fixed Shading
 62
  9
 10
        2.09134
 20
       -0.56743
 30
       -1.26541
 11
        1.89134
 21
       -0.32248
 31
       -1.51036
 12
        1.89134
 22
       -0.03964
 32
       -1.22752
 13
        2.09134
 23
       -0.28459
 33
       -0.98257
999
Fixed Shading:SHADING GROUP 1 FACE 2
  0
3DFACE
  8
Fixed Shading
 62
  9
 10
        2.08788
 20
       -0.56885
 30
       -1.26400
 11
        1.88788
 21
       -0.32390
 31
       -1.50895
 12
        1.88788
 22
       -0.04105
 32
       -1.22610
 13
        2.08788
 23
       -0.28600
 33
       -0.98115
999
Fixed Shading:Mir-SHADING GROUP 1 FACE 2
  0
3DFACE
  8
Fixed Shading
 62
  9
 10
        2.08788
 20
       -0.28600
 30
       -0.98115
 11
        1.88788
 21
       -0.04105
 31
       -1.22610
 12
        1.88788
 22
       -0.32390
 32
       -1.50895
 13
        2.08788
 23
       -0.56885
 33
       -1.26400
999
Fixed Shading:SHADING GROUP 1 FACE 3
  0
3DFACE
  8
Fixed Shading
 62
  9
 10
        2.09134
 20
       -0.56743
 30
       -1.26541
 11
        2.08788
 21
       -0.28600
 31
       -0.98115
 12
        2.09134
 22
       -0.28459
 32
       -0.98257
 13
        2.09134
 23
       -0.28459
 33
       -0.98257
999
Fixed Shading:Mir-SHADING GROUP 1 FACE 3
  0
3DFACE
  8
Fixed Shading
 62
  9
 10
        2.09134
 20
       -0.28459
 30
       -0.98257
 11
        2.08788
 21
       -0.28600
 31
       -0.98115
 12
        2.09134
 22
       -0.56743
 32
       -1.26541
 13
        2.09134
 23
       -0.56743
 33
       -1.26541
999
Fixed Shading:SHADING GROUP 1 FACE 4
  0
3DFACE
  8
Fixed Shading
 62
  9
 10
        1.89134
 20
       -0.32248
 30
       -1.51036
 11
        2.08788
 21
       -0.56885
 31
       -1.26400
 12
        2.09134
 22
       -0.56743
 32
       -1.26541
 13
        2.09134
 23
       -0.56743
 33
       -1.26541
999
Fixed Shading:Mir-SHADING GROUP 1 FACE 4
  0
3DFACE
  8
Fixed Shading
 62
  9
 10
        2.09134
 20
       -0.56743
 30
       -1.26541
 11
        2.08788
 21
       -0.56885
 31
       -1.26400
 12
        1.89134
 22
       -0.32248
 32
       -1.51036
 13
        1.89134
 23
       -0.32248
 33
       -1.51036
999
Fixed Shading:SHADING GROUP 1 FACE 5
  0
3DFACE
  8
Fixed Shading
 62
  9
 10
        1.89134
 20
       -0.03964
 30
       -1.22752
 11
        1.88788
 21
       -0.32390
 31
       -1.50895
 12
        1.89134
 22
       -0.32248
 32
       -1.51036
 13
        1.89134
 23
       -0.32248
 33
       -1.51036
999
Fixed Shading:Mir-SHADING GROUP 1 FACE 5
  0
3DFACE
  8
Fixed Shading
 62
  9
 10
        1.89134
 20
       -0.32248
 30
       -1.51036
 11
        1.88788
 21
       -0.32390
 31
       -1.50895
 12
        1.89134
 22
       -0.03964
 32
       -1.22752
 13
        1.89134
 23
       -0.03964
 33
       -1.22752
999
Fixed Shading:SHADING GROUP 1 FACE 6
  0
3DFACE
  8
Fixed Shading
 62
  9
 10
        2.09134
 20
       -0.28459
 30
       -0.98257
 11
        1.88788
 21
       -0.04105
 31
       -1.22610
 12
        1.89134
 22
       -0.03964
 32
       -1.22752
 13
        1.89134
 23
       -0.03964
 33
       -1.22752
999
Fixed Shading:Mir-SHADING GROUP 1 FACE 6
  0
3DFACE
  8
Fixed Shading
 62
  9
 10
        1.89134
 20
       -0.03964
 30
       -1.22752
 11
        1.88788
 21
       -0.04105
 31
       -1.22610
 12
        2.09134
 22
       -0.28459
 32
       -0.98257
 13
        2.09134
 23
       -0.28459
 33
       -0.98257
999
Fixed Shading:SHADING GROUP 1 FACE 7
  0
3DFACE
  8
Fixed Shading
 62
  9
 10
        1.59134
 20
       -0.28459
 30
       -0.98257
 11
        1.39134
 21
       -0.03964
 31
       -1.22752
 12
        1.39134
 22
       -0.32248
 32
       -1.51036
 13
        1.59134
 23
       -0.56743
 33
       -1.26541
999
Fixed Shading:Mir-SHADING GROUP 1 FACE 7
  0
3DFACE
  8
Fixed Shading
 62
  9
 10
        1.59134
 20
       -0.56743
 30
       -1.26541
 11
        1.39134
 21
       -0.32248
 31
       -1.51036
 12
        1.39134
 22
       -0.03964
 32
       -1.22752
 13
        1.59134
 23
       -0.28459
 33
       -0.98257
999
Fixed Shading:SHADING GROUP 1 FACE 8
  0
3DFACE
  8
Fixed Shading
 62
  9
 10
        1.58788
 20
       -0.56885
 30
       -1.26400
 11
        1.38788
 21
       -0.32390
 31
       -1.50895
 12
        1.38788
 22
       -0.04105
 32
       -1.22610
 13
        1.58788
 23
       -0.28600
 33
       -0.98115
999
Fixed Shading:Mir-SHADING GROUP 1 FACE 8
  0
3DFACE
  8
Fixed Shading
 62
  9
 10
        1.58788
 20
       -0.28600
 30
       -0.98115
 11
        1.38788
 21
       -0.04105
 31
       -1.22610
 12
        1.38788
 22
       -0.32390
 32
       -1.50895
 13
        1.58788
 23
       -0.56885
 33
       -1.26400
999
Fixed Shading:SHADING GROUP 1 FACE 9
  0
3DFACE
  8
Fixed Shading
 62
  9
 10
        1.59134
 20
       -0.56743
 30
       -1.26541
 11
        1.58788
 21
       -0.28600
 31
       -0.98115
 12
        1.59134
 22
       -0.28459
 32
       -0.98257
 13
        1.59134
 23
       -0.28459
 33
       -0.98257
999
Fixed Shading:Mir-SHADING GROUP 1 FACE 9
  0
3DFACE
  8
Fixed Shading
 62
  9
 10
        1.59134
 20
       -0.28459
 30
       -0.98257
 11
        1.58788
 21
       -0.28600
 31
       -0.98115
 12
        1.59134
 22
       -0.56743
 32
       -1.26541
 13
        1.59134
 23
       -0.56743
 33
       -1.26541
999
Fixed Shading:SHADING GROUP 1 FACE 10
  0
3DFACE
  8
Fixed Shading
 62
  9
 10
        1.39134
 20
       -0.32248
 30
       -1.51036
 11
        1.58788
 21
       -0.56885
 31
       -1.26400
 12
        1.59134
 22
       -0.56743
 32
       -1.26541
 13
        1.59134
 23
       -0.56743
 33
       -1.26541
999
Fixed Shading:Mir-SHADING GROUP 1 FACE 10
  0
3DFACE
  8
Fixed Shading
 62
  9
 10
        1.59134
 20
       -0.56743
 30
       -1.26541
 11
        1.58788
 21
       -0.56885
 31
       -1.26400
 12
        1.39134
 22
       -0.32248
 32
       -1.51036
 13
        1.39134
 23
       -0.32248
 33
       -1.51036
999
Fixed Shading:SHADING GROUP 1 FACE 11
  0
3DFACE
  8
Fixed Shading
 62
  9
 10
        1.39134
 20
       -0.03964
 30
       -1.22752
 11
        1.38788
 21
       -0.32390
 31
       -1.50895
 12
        1.39134
 22
       -0.32248
 32
       -1.51036
 13
        1.39134
 23
       -0.32248
 33
       -1.51036
999
Fixed Shading:Mir-SHADING GROUP 1 FACE 11
  0
3DFACE
  8
Fixed Shading
 62
  9
 10
        1.39134
 20
       -0.32248
 30
       -1.51036
 11
        1.38788
 21
       -0.32390
 31
       -1.50895
 12
        1.39134
 22
       -0.03964
 32
       -1.22752
 13
        1.39134
 23
       -0.03964
 33
       -1.22752
999
Fixed Shading:SHADING GROUP 1 FACE 12
  0
3DFACE
  8
Fixed Shading
 62
  9
 10
        1.59134
 20
       -0.28459
 30
       -0.98257
 11
        1.38788
 21
       -0.04105
 31
       -1.22610
 12
        1.39134
 22
       -0.03964
 32
       -1.22752
 13
        1.39134
 23
       -0.03964
 33
       -1.22752
999
Fixed Shading:Mir-SHADING GROUP 1 FACE 12
  0
3DFACE
  8
Fixed Shading
 62
  9
 10
        1.39134
 20
       -0.03964
 30
       -1.22752
 11
        1.38788
 21
       -0.04105
 31
       -1.22610
 12
        1.59134
 22
       -0.28459
 32
       -0.98257
 13
        1.59134
 23
       -0.28459
 33
       -0.98257
999
Fixed Shading:SHADING GROUP 1 FACE 13
  0
3DFACE
  8
Fixed Shading
 62
  9
 10
        1.09134
 20
       -0.28459
 30
       -0.98257
 11
        0.89134
 21
       -0.03964
 31
       -1.22752
 12
        0.89134
 22
       -0.32248
 32
       -1.51036
 13
        1.09134
 23
       -0.56743
 33
       -1.26541
999
Fixed Shading:Mir-SHADING GROUP 1 FACE 13
  0
3DFACE
  8
Fixed Shading
 62
  9
 10
        1.09134
 20
       -0.56743
 30
       -1.26541
 11
        0.89134
 21
       -0.32248
 31
       -1.51036
 12
        0.89134
 22
       -0.03964
 32
       -1.22752
 13
        1.09134
 23
       -0.28459
 33
       -0.98257
999
Fixed Shading:SHADING GROUP 1 FACE 14
  0
3DFACE
  8
Fixed Shading
 62
  9
 10
        1.08788
 20
       -0.56885
 30
       -1.26400
 11
        0.88788
 21
       -0.32390
 31
       -1.50895
 12
        0.88788
 22
       -0.04105
 32
       -1.22610
 13
        1.08788
 23
       -0.28600
 33
       -0.98115
999
Fixed Shading:Mir-SHADING GROUP 1 FACE 14
  0
3DFACE
  8
Fixed Shading
 62
  9
 10
        1.08788
 20
       -0.28600
 30
       -0.98115
 11
        0.88788
 21
       -0.04105
 31
       -1.22610
 12
        0.88788
 22
       -0.32390
 32
       -1.50895
 13
        1.08788
 23
       -0.56885
 33
       -1.26400
999
Fixed Shading:SHADING GROUP 1 FACE 15
  0
3DFACE
  8
Fixed Shading
 62
  9
 10
        1.09134
 20
       -0.56743
 30
       -1.26541
 11
        1.08788
 21
       -0.28600
 31
       -0.98115
 12
        1.09134
 22
       -0.28459
 32
       -0.98257
 13
        1.09134
 23
       -0.28459
 33
       -0.98257
999
Fixed Shading:Mir-SHADING GROUP 1 FACE 15
  0
3DFACE
  8
Fixed Shading
 62
  9
 10
        1.09134
 20
       -0.28459
 30
       -0.98257
 11
        1.08788
 21
       -0.28600
 31
       -0.98115
 12
        1.09134
 22
       -0.56743
 32
       -1.26541
 13
        1.09134
 23
       -0.56743
 33
       -1.26541
999
Fixed Shading:SHADING GROUP 1 FACE 16
  0
3DFACE
  8
Fixed Shading
 62
  9
 10
        0.89134
 20
       -0.32248
 30
       -1.51036
 11
        1.08788
 21
       -0.56885
 31
       -1.26400
 12
        1.09134
 22
       -0.56743
 32
       -1.26541
 13
        1.09134
 23
       -0.56743
 33
       -1.26541
999
Fixed Shading:Mir-SHADING GROUP 1 FACE 16
  0
3DFACE
  8
Fixed Shading
 62
  9
 10
        1.09134
 20
       -0.56743
 30
       -1.26541
 11
        1.08788
 21
       -0.56885
 31
       -1.26400
 12
        0.89134
 22
       -0.32248
 32
       -1.51036
 13
        0.89134
 23
       -0.32248
 33
       -1.51036
999
Fixed Shading:SHADING GROUP 1 FACE 17
  0
3DFACE
  8
Fixed Shading
 62
  9
 10
        0.89134
 20
       -0.03964
 30
       -1.22752
 11
        0.88788
 21
       -0.32390
 31
       -1.50895
 12
        0.89134
 22
       -0.32248
 32
       -1.51036
 13
        0.89134
 23
       -0.32248
 33
       -1.51036
999
Fixed Shading:Mir-SHADING GROUP 1 FACE 17
  0
3DFACE
  8
Fixed Shading
 62
  9
 10
        0.89134
 20
       -0.32248
 30
       -1.51036
 11
        0.88788
 21
       -0.32390
 31
       -1.50895
 12
        0.89134
 22
       -0.03964
 32
       -1.22752
 13
        0.89134
 23
       -0.03964
 33
       -1.22752
999
Fixed Shading:SHADING GROUP 1 FACE 18
  0
3DFACE
  8
Fixed Shading
 62
  9
 10
        1.09134
 20
       -0.28459
 30
       -0.98257
 11
        0.88788
 21
       -0.04105
 31
       -1.22610
 12
        0.89134
 22
       -0.03964
 32
       -1.22752
 13
        0.89134
 23
       -0.03964
 33
       -1.22752
999
Fixed Shading:Mir-SHADING GROUP 1 FACE 18
  0
3DFACE
  8
Fixed Shading
 62
  9
 10
        0.89134
 20
       -0.03964
 30
       -1.22752
 11
        0.88788
 21
       -0.04105
 31
       -1.22610
 12
        1.09134
 22
       -0.28459
 32
       -0.98257
 13
        1.09134
 23
       -0.28459
 33
       -0.98257
999
Fixed Shading:SHADING GROUP 1 FACE 19
  0
3DFACE
  8
Fixed Shading
 62
  9
 10
        0.59134
 20
       -0.28459
 30
       -0.98257
 11
        0.39134
 21
       -0.03964
 31
       -1.22752
 12
        0.39134
 22
       -0.32248
 32
       -1.51036
 13
        0.59134
 23
       -0.56743
 33
       -1.26541
999
Fixed Shading:Mir-SHADING GROUP 1 FACE 19
  0
3DFACE
  8
Fixed Shading
 62
  9
 10
        0.59134
 20
       -0.56743
 30
       -1.26541
 11
        0.39134
 21
       -0.32248
 31
       -1.51036
 12
        0.39134
 22
       -0.03964
 32
       -1.22752
 13
        0.59134
 23
       -0.28459
 33
       -0.98257
999
Fixed Shading:SHADING GROUP 1 FACE 20
  0
3DFACE
  8
Fixed Shading
 62
  9
 10
        0.58788
 20
       -0.56885
 30
       -1.26400
 11
        0.38788
 21
       -0.32390
 31
       -1.50895
 12
        0.38788
 22
       -0.04105
 32
       -1.22610
 13
        0.58788
 23
       -0.28600
 33
       -0.98115
999
Fixed Shading:Mir-SHADING GROUP 1 FACE 20
  0
3DFACE
  8
Fixed Shading
 62
  9
 10
        0.58788
 20
       -0.28600
 30
       -0.98115
 11
        0.38788
 21
       -0.04105
 31
       -1.22610
 12
        0.38788
 22
       -0.32390
 32
       -1.50895
 13
        0.58788
 23
       -0.56885
 33
       -1.26400
999
Fixed Shading:SHADING GROUP 1 FACE 21
  0
3DFACE
  8
Fixed Shading
 62
  9
 10
        0.59134
 20
       -0.56743
 30
       -1.26541
 11
        0.58788
 21
       -0.28600
 31
       -0.98115
 12
        0.59134
 22
       -0.28459
 32
       -0.98257
 13
        0.59134
 23
       -0.28459
 33
       -0.98257
999
Fixed Shading:Mir-SHADING GROUP 1 FACE 21
  0
3DFACE
  8
Fixed Shading
 62
  9
 10
        0.59134
 20
       -0.28459
 30
       -0.98257
 11
        0.58788
 21
       -0.28600
 31
       -0.98115
 12
        0.59134
 22
       -0.56743
 32
       -1.26541
 13
        0.59134
 23
       -0.56743
 33
       -1.26541
999
Fixed Shading:SHADING GROUP 1 FACE 22
  0
3DFACE
  8
Fixed Shading
 62
  9
 10
        0.39134
 20
       -0.32248
 30
       -1.51036
 11
        0.58788
 21
       -0.56885
 31
       -1.26400
 12
        0.59134
 22
       -0.56743
 32
       -1.26541
 13
        0.59134
 23
       -0.56743
 33
       -1.26541
999
Fixed Shading:Mir-SHADING GROUP 1 FACE 22
  0
3DFACE
  8
Fixed Shading
 62
  9
 10
        0.59134
 20
       -0.56743
 30
       -1.26541
 11
        0.58788
 21
       -0.56885
 31
       -1.26400
 12
        0.39134
 22
       -0.32248
 32
       -1.51036
 13
        0.39134
 23
       -0.32248
 33
       -1.51036
999
Fixed Shading:SHADING GROUP 1 FACE 23
  0
3DFACE
  8
Fixed Shading
 62
  9
 10
        0.39134
 20
       -0.03964
 30
       -1.22752
 11
        0.38788
 21
       -0.32390
 31
       -1.50895
 12
        0.39134
 22
       -0.32248
 32
       -1.51036
 13
        0.39134
 23
       -0.32248
 33
       -1.51036
999
Fixed Shading:Mir-SHADING GROUP 1 FACE 23
  0
3DFACE
  8
Fixed Shading
 62
  9
 10
        0.39134
 20
       -0.32248
 30
       -1.51036
 11
        0.38788
 21
       -0.32390
 31
       -1.50895
 12
        0.39134
 22
       -0.03964
 32
       -1.22752
 13
        0.39134
 23
       -0.03964
 33
       -1.22752
999
Fixed Shading:SHADING GROUP 1 FACE 24
  0
3DFACE
  8
Fixed Shading
 62
  9
 10
        0.59134
 20
       -0.28459
 30
       -0.98257
 11
        0.38788
 21
       -0.04105
 31
       -1.22610
 12
        0.39134
 22
       -0.03964
 32
       -1.22752
 13
        0.39134
 23
       -0.03964
 33
       -1.22752
999
Fixed Shading:Mir-SHADING GROUP 1 FACE 24
  0
3DFACE
  8
Fixed Shading
 62
  9
 10
        0.39134
 20
       -0.03964
 30
       -1.22752
 11
        0.38788
 21
       -0.04105
 31
       -1.22610
 12
        0.59134
 22
       -0.28459
 32
       -0.98257
 13
        0.59134
 23
       -0.28459
 33
       -0.98257
999
Fixed Shading:SHADING GROUP 1 FACE 25
  0
3DFACE
  8
Fixed Shading
 62
  9
 10
        0.09134
 20
       -0.28459
 30
       -0.98257
 11
       -0.10866
 21
       -0.03964
 31
       -1.22752
 12
       -0.10866
 22
       -0.32248
 32
       -1.51036
 13
        0.09134
 23
       -0.56743
 33
       -1.26541
999
Fixed Shading:Mir-SHADING GROUP 1 FACE 25
  0
3DFACE
  8
Fixed Shading
 62
  9
 10
        0.09134
 20
       -0.56743
 30
       -1.26541
 11
       -0.10866
 21
       -0.32248
 31
       -1.51036
 12
       -0.10866
 22
       -0.03964
 32
       -1.22752
 13
        0.09134
 23
       -0.28459
 33
       -0.98257
999
Fixed Shading:SHADING GROUP 1 FACE 26
  0
3DFACE
  8
Fixed Shading
 62
  9
 10
        0.08788
 20
       -0.56885
 30
       -1.26400
 11
       -0.11212
 21
       -0.32390
 31
       -1.50895
 12
       -0.11212
 22
       -0.04105
 32
       -1.22610
 13
        0.08788
 23
       -0.28600
 33
       -0.98115
999
Fixed Shading:Mir-SHADING GROUP 1 FACE 26
  0
3DFACE
  8
Fixed Shading
 62
  9
 10
        0.08788
 20
       -0.28600
 30
       -0.98115
 11
       -0.11212
 21
       -0.04105
 31
       -1.22610
 12
       -0.11212
 22
       -0.32390
 32
       -1.50895
 13
        0.08788
 23
       -0.56885
 33
       -1.26400
999
Fixed Shading:SHADING GROUP 1 FACE 27
  0
3DFACE
  8
Fixed Shading
 62
  9
 10
        0.09134
 20
       -0.56743
 30
       -1.26541
 11
        0.08788
 21
       -0.28600
 31
       -0.98115
 12
        0.09134
 22
       -0.28459
 32
       -0.98257
 13
        0.09134
 23
       -0.28459
 33
       -0.98257
999
Fixed Shading:Mir-SHADING GROUP 1 FACE 27
  0
3DFACE
  8
Fixed Shading
 62
  9
 10
        0.09134
 20
       -0.28459
 30
       -0.98257
 11
        0.08788
 21
       -0.28600
 31
       -0.98115
 12
        0.09134
 22
       -0.56743
 32
       -1.26541
 13
        0.09134
 23
       -0.56743
 33
       -1.26541
999
Fixed Shading:SHADING GROUP 1 FACE 28
  0
3DFACE
  8
Fixed Shading
 62
  9
 10
       -0.10866
 20
       -0.32248
 30
       -1.51036
 11
        0.08788
 21
       -0.56885
 31
       -1.26400
 12
        0.09134
 22
       -0.56743
 32
       -1.26541
 13
        0.09134
 23
       -0.56743
 33
       -1.26541
999
Fixed Shading:Mir-SHADING GROUP 1 FACE 28
  0
3DFACE
  8
Fixed Shading
 62
  9
 10
        0.09134
 20
       -0.56743
 30
       -1.26541
 11
        0.08788
 21
       -0.56885
 31
       -1.26400
 12
       -0.10866
 22
       -0.32248
 32
       -1.51036
 13
       -0.10866
 23
       -0.32248
 33
       -1.51036
999
Fixed Shading:SHADING GROUP 1 FACE 29
  0
3DFACE
  8
Fixed Shading
 62
  9
 10
       -0.10866
 20
       -0.03964
 30
       -1.22752
 11
       -0.11212
 21
       -0.32390
 31
       -1.50895
 12
       -0.10866
 22
       -0.32248
 32
       -1.51036
 13
       -0.10866
 23
       -0.32248
 33
       -1.51036
999
Fixed Shading:Mir-SHADING GROUP 1 FACE 29
  0
3DFACE
  8
Fixed Shading
 62
  9
 10
       -0.10866
 20
       -0.32248
 30
       -1.51036
 11
       -0.11212
 21
       -0.32390
 31
       -1.50895
 12
       -0.10866
 22
       -0.03964
 32
       -1.22752
 13
       -0.10866
 23
       -0.03964
 33
       -1.22752
999
Fixed Shading:SHADING GROUP 1 FACE 30
  0
3DFACE
  8
Fixed Shading
 62
  9
 10
        0.09134
 20
       -0.28459
 30
       -0.98257
 11
       -0.11212
 21
       -0.04105
 31
       -1.22610
 12
       -0.10866
 22
       -0.03964
 32
       -1.22752
 13
       -0.10866
 23
       -0.03964
 33
       -1.22752
999
Fixed Shading:Mir-SHADING GROUP 1 FACE 30
  0
3DFACE
  8
Fixed Shading
 62
  9
 10
       -0.10866
 20
       -0.03964
 30
       -1.22752
 11
       -0.11212
 21
       -0.04105
 31
       -1.22610
 12
        0.09134
 22
       -0.28459
 32
       -0.98257
 13
        0.09134
 23
       -0.28459
 33
       -0.98257
999
Fixed Shading:SHADING GROUP 1 FACE 31
  0
3DFACE
  8
Fixed Shading
 62
  9
 10
       -0.40866
 20
       -0.28459
 30
       -0.98257
 11
       -0.60866
 21
       -0.03964
 31
       -1.22752
 12
       -0.60866
 22
       -0.32248
 32
       -1.51036
 13
       -0.40866
 23
       -0.56743
 33
       -1.26541
999
Fixed Shading:Mir-SHADING GROUP 1 FACE 31
  0
3DFACE
  8
Fixed Shading
 62
  9
 10
       -0.40866
 20
       -0.56743
 30
       -1.26541
 11
       -0.60866
 21
       -0.32248
 31
       -1.51036
 12
       -0.60866
 22
       -0.03964
 32
       -1.22752
 13
       -0.40866
 23
       -0.28459
 33
       -0.98257
999
Fixed Shading:SHADING GROUP 1 FACE 32
  0
3DFACE
  8
Fixed Shading
 62
  9
 10
       -0.41212
 20
       -0.56885
 30
       -1.26400
 11
       -0.61212
 21
       -0.32390
 31
       -1.50895
 12
       -0.61212
 22
       -0.04105
 32
       -1.22610
 13
       -0.41212
 23
       -0.28600
 33
       -0.98115
999
Fixed Shading:Mir-SHADING GROUP 1 FACE 32
  0
3DFACE
  8
Fixed Shading
 62
  9
 10
       -0.41212
 20
       -0.28600
 30
       -0.98115
 11
       -0.61212
 21
       -0.04105
 31
       -1.22610
 12
       -0.61212
 22
       -0.32390
 32
       -1.50895
 13
       -0.41212
 23
       -0.56885
 33
       -1.26400
999
Fixed Shading:SHADING GROUP 1 FACE 33
  0
3DFACE
  8
Fixed Shading
 62
  9
 10
       -0.40866
 20
       -0.56743
 30
       -1.26541
 11
       -0.41212
 21
       -0.28600
 31
       -0.98115
 12
       -0.40866
 22
       -0.28459
 32
       -0.98257
 13
       -0.40866
 23
       -0.28459
 33
       -0.98257
999
Fixed Shading:Mir-SHADING GROUP 1 FACE 33
  0
3DFACE
  8
Fixed Shading
 62
  9
 10
       -0.40866
 20
       -0.28459
 30
       -0.98257
 11
       -0.41212
 21
       -0.28600
 31
       -0.98115
 12
       -0.40866
 22
       -0.56743
 32
       -1.26541
 13
       -0.40866
 23
       -0.56743
 33
       -1.26541
999
Fixed Shading:SHADING GROUP 1 FACE 34
  0
3DFACE
  8
Fixed Shading
 62
  9
 10
       -0.60866
 20
       -0.32248
 30
       -1.51036
 11
       -0.41212
 21
       -0.56885
 31
       -1.26400
 12
       -0.40866
 22
       -0.56743
 32
       -1.26541
 13
       -0.40866
 23
       -0.56743
 33
       -1.26541
999
Fixed Shading:Mir-SHADING GROUP 1 FACE 34
  0
3DFACE
  8
Fixed Shading
 62
  9
 10
       -0.40866
 20
       -0.56743
 30
       -1.26541
 11
       -0.41212
 21
       -0.56885
 31
       -1.26400
 12
       -0.60866
 22
       -0.32248
 32
       -1.51036
 13
       -0.60866
 23
       -0.32248
 33
       -1.51036
999
Fixed Shading:SHADING GROUP 1 FACE 35
  0
3DFACE
  8
Fixed Shading
 62
  9
 10
       -0.60866
 20
       -0.03964
 30
       -1.22752
 11
       -0.61212
 21
       -0.32390
 31
       -1.50895
 12
       -0.60866
 22
       -0.32248
 32
       -1.51036
 13
       -0.60866
 23
       -0.32248
 33
       -1.51036
999
Fixed Shading:Mir-SHADING GROUP 1 FACE 35
  0
3DFACE
  8
Fixed Shading
 62
  9
 10
       -0.60866
 20
       -0.32248
 30
       -1.51036
 11
       -0.61212
 21
       -0.32390
 31
       -1.50895
 12
       -0.60866
 22
       -0.03964
 32
       -1.22752
 13
       -0.60866
 23
       -0.03964
 33
       -1.22752
999
Fixed Shading:SHADING GROUP 1 FACE 36
  0
3DFACE
  8
Fixed Shading
 62
  9
 10
       -0.40866
 20
       -0.28459
 30
       -0.98257
 11
       -0.61212
 21
       -0.04105
 31
       -1.22610
 12
       -0.60866
 22
       -0.03964
 32
       -1.22752
 13
       -0.60866
 23
       -0.03964
 33
       -1.22752
999
Fixed Shading:Mir-SHADING GROUP 1 FACE 36
  0
3DFACE
  8
Fixed Shading
 62
  9
 10
       -0.60866
 20
       -0.03964
 30
       -1.22752
 11
       -0.61212
 21
       -0.04105
 31
       -1.22610
 12
       -0.40866
 22
       -0.28459
 32
       -0.98257
 13
       -0.40866
 23
       -0.28459
 33
       -0.98257
999
Fixed Shading:SHADING GROUP 1 FACE 37
  0
3DFACE
  8
Fixed Shading
 62
  9
 10
       -0.90866
 20
       -0.28459
 30
       -0.98257
 11
       -1.10866
 21
       -0.03964
 31
       -1.22752
 12
       -1.10866
 22
       -0.32248
 32
       -1.51036
 13
       -0.90866
 23
       -0.56743
 33
       -1.26541
999
Fixed Shading:Mir-SHADING GROUP 1 FACE 37
  0
3DFACE
  8
Fixed Shading
 62
  9
 10
       -0.90866
 20
       -0.56743
 30
       -1.26541
 11
       -1.10866
 21
       -0.32248
 31
       -1.51036
 12
       -1.10866
 22
       -0.03964
 32
       -1.22752
 13
       -0.90866
 23
       -0.28459
 33
       -0.98257
999
Fixed Shading:SHADING GROUP 1 FACE 38
  0
3DFACE
  8
Fixed Shading
 62
  9
 10
       -0.91212
 20
       -0.56885
 30
       -1.26400
 11
       -1.11212
 21
       -0.32390
 31
       -1.50895
 12
       -1.11212
 22
       -0.04105
 32
       -1.22610
 13
       -0.91212
 23
       -0.28600
 33
       -0.98115
999
Fixed Shading:Mir-SHADING GROUP 1 FACE 38
  0
3DFACE
  8
Fixed Shading
 62
  9
 10
       -0.91212
 20
       -0.28600
 30
       -0.98115
 11
       -1.11212
 21
       -0.04105
 31
       -1.22610
 12
       -1.11212
 22
       -0.32390
 32
       -1.50895
 13
       -0.91212
 23
       -0.56885
 33
       -1.26400
999
Fixed Shading:SHADING GROUP 1 FACE 39
  0
3DFACE
  8
Fixed Shading
 62
  9
 10
       -0.90866
 20
       -0.56743
 30
       -1.26541
 11
       -0.91212
 21
       -0.28600
 31
       -0.98115
 12
       -0.90866
 22
       -0.28459
 32
       -0.98257
 13
       -0.90866
 23
       -0.28459
 33
       -0.98257
999
Fixed Shading:Mir-SHADING GROUP 1 FACE 39
  0
3DFACE
  8
Fixed Shading
 62
  9
 10
       -0.90866
 20
       -0.28459
 30
       -0.98257
 11
       -0.91212
 21
       -0.28600
 31
       -0.98115
 12
       -0.90866
 22
       -0.56743
 32
       -1.26541
 13
       -0.90866
 23
       -0.56743
 33
       -1.26541
999
Fixed Shading:SHADING GROUP 1 FACE 40
  0
3DFACE
  8
Fixed Shading
 62
  9
 10
       -1.10866
 20
       -0.32248
 30
       -1.51036
 11
       -0.91212
 21
       -0.56885
 31
       -1.26400
 12
       -0.90866
 22
       -0.56743
 32
       -1.26541
 13
       -0.90866
 23
       -0.56743
 33
       -1.26541
999
Fixed Shading:Mir-SHADING GROUP 1 FACE 40
  0
3DFACE
  8
Fixed Shading
 62
  9
 10
       -0.90866
 20
       -0.56743
 30
       -1.26541
 11
       -0.91212
 21
       -0.56885
 31
       -1.26400
 12
       -1.10866
 22
       -0.32248
 32
       -1.51036
 13
       -1.10866
 23
       -0.32248
 33
       -1.51036
999
Fixed Shading:SHADING GROUP 1 FACE 41
  0
3DFACE
  8
Fixed Shading
 62
  9
 10
       -1.10866
 20
       -0.03964
 30
       -1.22752
 11
       -1.11212
 21
       -0.32390
 31
       -1.50895
 12
       -1.10866
 22
       -0.32248
 32
       -1.51036
 13
       -1.10866
 23
       -0.32248
 33
       -1.51036
999
Fixed Shading:Mir-SHADING GROUP 1 FACE 41
  0
3DFACE
  8
Fixed Shading
 62
  9
 10
       -1.10866
 20
       -0.32248
 30
       -1.51036
 11
       -1.11212
 21
       -0.32390
 31
       -1.50895
 12
       -1.10866
 22
       -0.03964
 32
       -1.22752
 13
       -1.10866
 23
       -0.03964
 33
       -1.22752
999
Fixed Shading:SHADING GROUP 1 FACE 42
  0
3DFACE
  8
Fixed Shading
 62
  9
 10
       -0.90866
 20
       -0.28459
 30
       -0.98257
 11
       -1.11212
 21
       -0.04105
 31
       -1.22610
 12
       -1.10866
 22
       -0.03964
 32
       -1.22752
 13
       -1.10866
 23
       -0.03964
 33
       -1.22752
999
Fixed Shading:Mir-SHADING GROUP 1 FACE 42
  0
3DFACE
  8
Fixed Shading
 62
  9
 10
       -1.10866
 20
       -0.03964
 30
       -1.22752
 11
       -1.11212
 21
       -0.04105
 31
       -1.22610
 12
       -0.90866
 22
       -0.28459
 32
       -0.98257
 13
       -0.90866
 23
       -0.28459
 33
       -0.98257
999
Fixed Shading:SHADING GROUP 1 FACE 43
  0
3DFACE
  8
Fixed Shading
 62
  9
 10
       -1.40866
 20
       -0.28459
 30
       -0.98257
 11
       -1.60866
 21
       -0.03964
 31
       -1.22752
 12
       -1.60866
 22
       -0.32248
 32
       -1.51036
 13
       -1.40866
 23
       -0.56743
 33
       -1.26541
999
Fixed Shading:Mir-SHADING GROUP 1 FACE 43
  0
3DFACE
  8
Fixed Shading
 62
  9
 10
       -1.40866
 20
       -0.56743
 30
       -1.26541
 11
       -1.60866
 21
       -0.32248
 31
       -1.51036
 12
       -1.60866
 22
       -0.03964
 32
       -1.22752
 13
       -1.40866
 23
       -0.28459
 33
       -0.98257
999
Fixed Shading:SHADING GROUP 1 FACE 44
  0
3DFACE
  8
Fixed Shading
 62
  9
 10
       -1.41212
 20
       -0.56885
 30
       -1.26400
 11
       -1.61212
 21
       -0.32390
 31
       -1.50895
 12
       -1.61212
 22
       -0.04105
 32
       -1.22610
 13
       -1.41212
 23
       -0.28600
 33
       -0.98115
999
Fixed Shading:Mir-SHADING GROUP 1 FACE 44
  0
3DFACE
  8
Fixed Shading
 62
  9
 10
       -1.41212
 20
       -0.28600
 30
       -0.98115
 11
       -1.61212
 21
       -0.04105
 31
       -1.22610
 12
       -1.61212
 22
       -0.32390
 32
       -1.50895
 13
       -1.41212
 23
       -0.56885
 33
       -1.26400
999
Fixed Shading:SHADING GROUP 1 FACE 45
  0
3DFACE
  8
Fixed Shading
 62
  9
 10
       -1.40866
 20
       -0.56743
 30
       -1.26541
 11
       -1.41212
 21
       -0.28600
 31
       -0.98115
 12
       -1.40866
 22
       -0.28459
 32
       -0.98257
 13
       -1.40866
 23
       -0.28459
 33
       -0.98257
999
Fixed Shading:Mir-SHADING GROUP 1 FACE 45
  0
3DFACE
  8
Fixed Shading
 62
  9
 10
       -1.40866
 20
       -0.28459
 30
       -0.98257
 11
       -1.41212
 21
       -0.28600
 31
       -0.98115
 12
       -1.40866
 22
       -0.56743
 32
       -1.26541
 13
       -1.40866
 23
       -0.56743
 33
       -1.26541
999
Fixed Shading:SHADING GROUP 1 FACE 46
  0
3DFACE
  8
Fixed Shading
 62
  9
 10
       -1.60866
 20
       -0.32248
 30
       -1.51036
 11
       -1.41212
 21
       -0.56885
 31
       -1.26400
 12
       -1.40866
 22
       -0.56743
 32
       -1.26541
 13
       -1.40866
 23
       -0.56743
 33
       -1.26541
999
Fixed Shading:Mir-SHADING GROUP 1 FACE 46
  0
3DFACE
  8
Fixed Shading
 62
  9
 10
       -1.40866
 20
       -0.56743
 30
       -1.26541
 11
       -1.41212
 21
       -0.56885
 31
       -1.26400
 12
       -1.60866
 22
       -0.32248
 32
       -1.51036
 13
       -1.60866
 23
       -0.32248
 33
       -1.51036
999
Fixed Shading:SHADING GROUP 1 FACE 47
  0
3DFACE
  8
Fixed Shading
 62
  9
 10
       -1.60866
 20
       -0.03964
 30
       -1.22752
 11
       -1.61212
 21
       -0.32390
 31
       -1.50895
 12
       -1.60866
 22
       -0.32248
 32
       -1.51036
 13
       -1.60866
 23
       -0.32248
 33
       -1.51036
999
Fixed Shading:Mir-SHADING GROUP 1 FACE 47
  0
3DFACE
  8
Fixed Shading
 62
  9
 10
       -1.60866
 20
       -0.32248
 30
       -1.51036
 11
       -1.61212
 21
       -0.32390
 31
       -1.50895
 12
       -1.60866
 22
       -0.03964
 32
       -1.22752
 13
       -1.60866
 23
       -0.03964
 33
       -1.22752
999
Fixed Shading:SHADING GROUP 1 FACE 48
  0
3DFACE
  8
Fixed Shading
 62
  9
 10
       -1.40866
 20
       -0.28459
 30
       -0.98257
 11
       -1.61212
 21
       -0.04105
 31
       -1.22610
 12
       -1.60866
 22
       -0.03964
 32
       -1.22752
 13
       -1.60866
 23
       -0.03964
 33
       -1.22752
999
Fixed Shading:Mir-SHADING GROUP 1 FACE 48
  0
3DFACE
  8
Fixed Shading
 62
  9
 10
       -1.60866
 20
       -0.03964
 30
       -1.22752
 11
       -1.61212
 21
       -0.04105
 31
       -1.22610
 12
       -1.40866
 22
       -0.28459
 32
       -0.98257
 13
       -1.40866
 23
       -0.28459
 33
       -0.98257
999
Fixed Shading:SHADING GROUP 1 FACE 49
  0
3DFACE
  8
Fixed Shading
 62
  9
 10
       -1.90866
 20
       -0.28459
 30
       -0.98257
 11
       -2.10866
 21
       -0.03964
 31
       -1.22752
 12
       -2.10866
 22
       -0.32248
 32
       -1.51036
 13
       -1.90866
 23
       -0.56743
 33
       -1.26541
999
Fixed Shading:Mir-SHADING GROUP 1 FACE 49
  0
3DFACE
  8
Fixed Shading
 62
  9
 10
       -1.90866
 20
       -0.56743
 30
       -1.26541
 11
       -2.10866
 21
       -0.32248
 31
       -1.51036
 12
       -2.10866
 22
       -0.03964
 32
       -1.22752
 13
       -1.90866
 23
       -0.28459
 33
       -0.98257
999
Fixed Shading:SHADING GROUP 1 FACE 50
  0
3DFACE
  8
Fixed Shading
 62
  9
 10
       -1.91212
 20
       -0.56885
 30
       -1.26400
 11
       -2.11212
 21
       -0.32390
 31
       -1.50895
 12
       -2.11212
 22
       -0.04105
 32
       -1.22610
 13
       -1.91212
 23
       -0.28600
 33
       -0.98115
999
Fixed Shading:Mir-SHADING GROUP 1 FACE 50
  0
3DFACE
  8
Fixed Shading
 62
  9
 10
       -1.91212
 20
       -0.28600
 30
       -0.98115
 11
       -2.11212
 21
       -0.04105
 31
       -1.22610
 12
       -2.11212
 22
       -0.32390
 32
       -1.50895
 13
       -1.91212
 23
       -0.56885
 33
       -1.26400
999
Fixed Shading:SHADING GROUP 1 FACE 51
  0
3DFACE
  8
Fixed Shading
 62
  9
 10
       -1.90866
 20
       -0.56743
 30
       -1.26541
 11
       -1.91212
 21
       -0.28600
 31
       -0.98115
 12
       -1.90866
 22
       -0.28459
 32
       -0.98257
 13
       -1.90866
 23
       -0.28459
 33
       -0.98257
999
Fixed Shading:Mir-SHADING GROUP 1 FACE 51
  0
3DFACE
  8
Fixed Shading
 62
  9
 10
       -1.90866
 20
       -0.28459
 30
       -0.98257
 11
       -1.91212
 21
       -0.28600
 31
       -0.98115
 12
       -1.90866
 22
       -0.56743
 32
       -1.26541
 13
       -1.90866
 23
       -0.56743
 33
       -1.26541
999
Fixed Shading:SHADING GROUP 1 FACE 52
  0
3DFACE
  8
Fixed Shading
 62
  9
 10
       -2.10866
 20
       -0.32248
 30
       -1.51036
 11
       -1.91212
 21
       -0.56885
 31
       -1.26400
 12
       -1.90866
 22
       -0.56743
 32
       -1.26541
 13
       -1.90866
 23
       -0.56743
 33
       -1.26541
999
Fixed Shading:Mir-SHADING GROUP 1 FACE 52
  0
3DFACE
  8
Fixed Shading
 62
  9
 10
       -1.90866
 20
       -0.56743
 30
       -1.26541
 11
       -1.91212
 21
       -0.56885
 31
       -1.26400
 12
       -2.10866
 22
       -0.32248
 32
       -1.51036
 13
       -2.10866
 23
       -0.32248
 33
       -1.51036
999
Fixed Shading:SHADING GROUP 1 FACE 53
  0
3DFACE
  8
Fixed Shading
 62
  9
 10
       -2.10866
 20
       -0.03964
 30
       -1.22752
 11
       -2.11212
 21
       -0.32390
 31
       -1.50895
 12
       -2.10866
 22
       -0.32248
 32
       -1.51036
 13
       -2.10866
 23
       -0.32248
 33
       -1.51036
999
Fixed Shading:Mir-SHADING GROUP 1 FACE 53
  0
3DFACE
  8
Fixed Shading
 62
  9
 10
       -2.10866
 20
       -0.32248
 30
       -1.51036
 11
       -2.11212
 21
       -0.32390
 31
       -1.50895
 12
       -2.10866
 22
       -0.03964
 32
       -1.22752
 13
       -2.10866
 23
       -0.03964
 33
       -1.22752
999
Fixed Shading:SHADING GROUP 1 FACE 54
  0
3DFACE
  8
Fixed Shading
 62
  9
 10
       -1.90866
 20
       -0.28459
 30
       -0.98257
 11
       -2.11212
 21
       -0.04105
 31
       -1.22610
 12
       -2.10866
 22
       -0.03964
 32
       -1.22752
 13
       -2.10866
 23
       -0.03964
 33
       -1.22752
999
Fixed Shading:Mir-SHADING GROUP 1 FACE 54
  0
3DFACE
  8
Fixed Shading
 62
  9
 10
       -2.10866
 20
       -0.03964
 30
       -1.22752
 11
       -2.11212
 21
       -0.04105
 31
       -1.22610
 12
       -1.90866
 22
       -0.28459
 32
       -0.98257
 13
       -1.90866
 23
       -0.28459
 33
       -0.98257
999
Fixed Shading:SHADING GROUP 1 FACE 55
  0
3DFACE
  8
Fixed Shading
 62
  9
 10
        2.09134
 20
       -0.28459
 30
       -0.48257
 11
        1.89134
 21
       -0.03964
 31
       -0.72752
 12
        1.89134
 22
       -0.32248
 32
       -1.01036
 13
        2.09134
 23
       -0.56743
 33
       -0.76541
999
Fixed Shading:Mir-SHADING GROUP 1 FACE 55
  0
3DFACE
  8
Fixed Shading
 62
  9
 10
        2.09134
 20
       -0.56743
 30
       -0.76541
 11
        1.89134
 21
       -0.32248
 31
       -1.01036
 12
        1.89134
 22
       -0.03964
 32
       -0.72752
 13
        2.09134
 23
       -0.28459
 33
       -0.48257
999
Fixed Shading:SHADING GROUP 1 FACE 56
  0
3DFACE
  8
Fixed Shading
 62
  9
 10
        2.08788
 20
       -0.56885
 30
       -0.76400
 11
        1.88788
 21
       -0.32390
 31
       -1.00895
 12
        1.88788
 22
       -0.04105
 32
       -0.72610
 13
        2.08788
 23
       -0.28600
 33
       -0.48115
999
Fixed Shading:Mir-SHADING GROUP 1 FACE 56
  0
3DFACE
  8
Fixed Shading
 62
  9
 10
        2.08788
 20
       -0.28600
 30
       -0.48115
 11
        1.88788
 21
       -0.04105
 31
       -0.72610
 12
        1.88788
 22
       -0.32390
 32
       -1.00895
 13
        2.08788
 23
       -0.56885
 33
       -0.76400
999
Fixed Shading:SHADING GROUP 1 FACE 57
  0
3DFACE
  8
Fixed Shading
 62
  9
 10
        2.09134
 20
       -0.56743
 30
       -0.76541
 11
        2.08788
 21
       -0.28600
 31
       -0.48115
 12
        2.09134
 22
       -0.28459
 32
       -0.48257
 13
        2.09134
 23
       -0.28459
 33
       -0.48257
999
Fixed Shading:Mir-SHADING GROUP 1 FACE 57
  0
3DFACE
  8
Fixed Shading
 62
  9
 10
        2.09134
 20
       -0.28459
 30
       -0.48257
 11
        2.08788
 21
       -0.28600
 31
       -0.48115
 12
        2.09134
 22
       -0.56743
 32
       -0.76541
 13
        2.09134
 23
       -0.56743
 33
       -0.76541
999
Fixed Shading:SHADING GROUP 1 FACE 58
  0
3DFACE
  8
Fixed Shading
 62
  9
 10
        1.89134
 20
       -0.32248
 30
       -1.01036
 11
        2.08788
 21
       -0.56885
 31
       -0.76400
 12
        2.09134
 22
       -0.56743
 32
       -0.76541
 13
        2.09134
 23
       -0.56743
 33
       -0.76541
999
Fixed Shading:Mir-SHADING GROUP 1 FACE 58
  0
3DFACE
  8
Fixed Shading
 62
  9
 10
        2.09134
 20
       -0.56743
 30
       -0.76541
 11
        2.08788
 21
       -0.56885
 31
       -0.76400
 12
        1.89134
 22
       -0.32248
 32
       -1.01036
 13
        1.89134
 23
       -0.32248
 33
       -1.01036
999
Fixed Shading:SHADING GROUP 1 FACE 59
  0
3DFACE
  8
Fixed Shading
 62
  9
 10
        1.89134
 20
       -0.03964
 30
       -0.72752
 11
        1.88788
 21
       -0.32390
 31
       -1.00895
 12
        1.89134
 22
       -0.32248
 32
       -1.01036
 13
        1.89134
 23
       -0.32248
 33
       -1.01036
999
Fixed Shading:Mir-SHADING GROUP 1 FACE 59
  0
3DFACE
  8
Fixed Shading
 62
  9
 10
        1.89134
 20
       -0.32248
 30
       -1.01036
 11
        1.88788
 21
       -0.32390
 31
       -1.00895
 12
        1.89134
 22
       -0.03964
 32
       -0.72752
 13
        1.89134
 23
       -0.03964
 33
       -0.72752
999
Fixed Shading:SHADING GROUP 1 FACE 60
  0
3DFACE
  8
Fixed Shading
 62
  9
 10
        2.09134
 20
       -0.28459
 30
       -0.48257
 11
        1.88788
 21
       -0.04105
 31
       -0.72610
 12
        1.89134
 22
       -0.03964
 32
       -0.72752
 13
        1.89134
 23
       -0.03964
 33
       -0.72752
999
Fixed Shading:Mir-SHADING GROUP 1 FACE 60
  0
3DFACE
  8
Fixed Shading
 62
  9
 10
        1.89134
 20
       -0.03964
 30
       -0.72752
 11
        1.88788
 21
       -0.04105
 31
       -0.72610
 12
        2.09134
 22
       -0.28459
 32
       -0.48257
 13
        2.09134
 23
       -0.28459
 33
       -0.48257
999
Fixed Shading:SHADING GROUP 1 FACE 61
  0
3DFACE
  8
Fixed Shading
 62
  9
 10
        1.59134
 20
       -0.28459
 30
       -0.48257
 11
        1.39134
 21
       -0.03964
 31
       -0.72752
 12
        1.39134
 22
       -0.32248
 32
       -1.01036
 13
        1.59134
 23
       -0.56743
 33
       -0.76541
999
Fixed Shading:Mir-SHADING GROUP 1 FACE 61
  0
3DFACE
  8
Fixed Shading
 62
  9
 10
        1.59134
 20
       -0.56743
 30
       -0.76541
 11
        1.39134
 21
       -0.32248
 31
       -1.01036
 12
        1.39134
 22
       -0.03964
 32
       -0.72752
 13
        1.59134
 23
       -0.28459
 33
       -0.48257
999
Fixed Shading:SHADING GROUP 1 FACE 62
  0
3DFACE
  8
Fixed Shading
 62
  9
 10
        1.58788
 20
       -0.56885
 30
       -0.76400
 11
        1.38788
 21
       -0.32390
 31
       -1.00895
 12
        1.38788
 22
       -0.04105
 32
       -0.72610
 13
        1.58788
 23
       -0.28600
 33
       -0.48115
999
Fixed Shading:Mir-SHADING GROUP 1 FACE 62
  0
3DFACE
  8
Fixed Shading
 62
  9
 10
        1.58788
 20
       -0.28600
 30
       -0.48115
 11
        1.38788
 21
       -0.04105
 31
       -0.72610
 12
        1.38788
 22
       -0.32390
 32
       -1.00895
 13
        1.58788
 23
       -0.56885
 33
       -0.76400
999
Fixed Shading:SHADING GROUP 1 FACE 63
  0
3DFACE
  8
Fixed Shading
 62
  9
 10
        1.59134
 20
       -0.56743
 30
       -0.76541
 11
        1.58788
 21
       -0.28600
 31
       -0.48115
 12
        1.59134
 22
       -0.28459
 32
       -0.48257
 13
        1.59134
 23
       -0.28459
 33
       -0.48257
999
Fixed Shading:Mir-SHADING GROUP 1 FACE 63
  0
3DFACE
  8
Fixed Shading
 62
  9
 10
        1.59134
 20
       -0.28459
 30
       -0.48257
 11
        1.58788
 21
       -0.28600
 31
       -0.48115
 12
        1.59134
 22
       -0.56743
 32
       -0.76541
 13
        1.59134
 23
       -0.56743
 33
       -0.76541
999
Fixed Shading:SHADING GROUP 1 FACE 64
  0
3DFACE
  8
Fixed Shading
 62
  9
 10
        1.39134
 20
       -0.32248
 30
       -1.01036
 11
        1.58788
 21
       -0.56885
 31
       -0.76400
 12
        1.59134
 22
       -0.56743
 32
       -0.76541
 13
        1.59134
 23
       -0.56743
 33
       -0.76541
999
Fixed Shading:Mir-SHADING GROUP 1 FACE 64
  0
3DFACE
  8
Fixed Shading
 62
  9
 10
        1.59134
 20
       -0.56743
 30
       -0.76541
 11
        1.58788
 21
       -0.56885
 31
       -0.76400
 12
        1.39134
 22
       -0.32248
 32
       -1.01036
 13
        1.39134
 23
       -0.32248
 33
       -1.01036
999
Fixed Shading:SHADING GROUP 1 FACE 65
  0
3DFACE
  8
Fixed Shading
 62
  9
 10
        1.39134
 20
       -0.03964
 30
       -0.72752
 11
        1.38788
 21
       -0.32390
 31
       -1.00895
 12
        1.39134
 22
       -0.32248
 32
       -1.01036
 13
        1.39134
 23
       -0.32248
 33
       -1.01036
999
Fixed Shading:Mir-SHADING GROUP 1 FACE 65
  0
3DFACE
  8
Fixed Shading
 62
  9
 10
        1.39134
 20
       -0.32248
 30
       -1.01036
 11
        1.38788
 21
       -0.32390
 31
       -1.00895
 12
        1.39134
 22
       -0.03964
 32
       -0.72752
 13
        1.39134
 23
       -0.03964
 33
       -0.72752
999
Fixed Shading:SHADING GROUP 1 FACE 66
  0
3DFACE
  8
Fixed Shading
 62
  9
 10
        1.59134
 20
       -0.28459
 30
       -0.48257
 11
        1.38788
 21
       -0.04105
 31
       -0.72610
 12
        1.39134
 22
       -0.03964
 32
       -0.72752
 13
        1.39134
 23
       -0.03964
 33
       -0.72752
999
Fixed Shading:Mir-SHADING GROUP 1 FACE 66
  0
3DFACE
  8
Fixed Shading
 62
  9
 10
        1.39134
 20
       -0.03964
 30
       -0.72752
 11
        1.38788
 21
       -0.04105
 31
       -0.72610
 12
        1.59134
 22
       -0.28459
 32
       -0.48257
 13
        1.59134
 23
       -0.28459
 33
       -0.48257
999
Fixed Shading:SHADING GROUP 1 FACE 67
  0
3DFACE
  8
Fixed Shading
 62
  9
 10
        1.09134
 20
       -0.28459
 30
       -0.48257
 11
        0.89134
 21
       -0.03964
 31
       -0.72752
 12
        0.89134
 22
       -0.32248
 32
       -1.01036
 13
        1.09134
 23
       -0.56743
 33
       -0.76541
999
Fixed Shading:Mir-SHADING GROUP 1 FACE 67
  0
3DFACE
  8
Fixed Shading
 62
  9
 10
        1.09134
 20
       -0.56743
 30
       -0.76541
 11
        0.89134
 21
       -0.32248
 31
       -1.01036
 12
        0.89134
 22
       -0.03964
 32
       -0.72752
 13
        1.09134
 23
       -0.28459
 33
       -0.48257
999
Fixed Shading:SHADING GROUP 1 FACE 68
  0
3DFACE
  8
Fixed Shading
 62
  9
 10
        1.08788
 20
       -0.56885
 30
       -0.76400
 11
        0.88788
 21
       -0.32390
 31
       -1.00895
 12
        0.88788
 22
       -0.04105
 32
       -0.72610
 13
        1.08788
 23
       -0.28600
 33
       -0.48115
999
Fixed Shading:Mir-SHADING GROUP 1 FACE 68
  0
3DFACE
  8
Fixed Shading
 62
  9
 10
        1.08788
 20
       -0.28600
 30
       -0.48115
 11
        0.88788
 21
       -0.04105
 31
       -0.72610
 12
        0.88788
 22
       -0.32390
 32
       -1.00895
 13
        1.08788
 23
       -0.56885
 33
       -0.76400
999
Fixed Shading:SHADING GROUP 1 FACE 69
  0
3DFACE
  8
Fixed Shading
 62
  9
 10
        1.09134
 20
       -0.56743
 30
       -0.76541
 11
        1.08788
 21
       -0.28600
 31
       -0.48115
 12
        1.09134
 22
       -0.28459
 32
       -0.48257
 13
        1.09134
 23
       -0.28459
 33
       -0.48257
999
Fixed Shading:Mir-SHADING GROUP 1 FACE 69
  0
3DFACE
  8
Fixed Shading
 62
  9
 10
        1.09134
 20
       -0.28459
 30
       -0.48257
 11
        1.08788
 21
       -0.28600
 31
       -0.48115
 12
        1.09134
 22
       -0.56743
 32
       -0.76541
 13
        1.09134
 23
       -0.56743
 33
       -0.76541
999
Fixed Shading:SHADING GROUP 1 FACE 70
  0
3DFACE
  8
Fixed Shading
 62
  9
 10
        0.89134
 20
       -0.32248
 30
       -1.01036
 11
        1.08788
 21
       -0.56885
 31
       -0.76400
 12
        1.09134
 22
       -0.56743
 32
       -0.76541
 13
        1.09134
 23
       -0.56743
 33
       -0.76541
999
Fixed Shading:Mir-SHADING GROUP 1 FACE 70
  0
3DFACE
  8
Fixed Shading
 62
  9
 10
        1.09134
 20
       -0.56743
 30
       -0.76541
 11
        1.08788
 21
       -0.56885
 31
       -0.76400
 12
        0.89134
 22
       -0.32248
 32
       -1.01036
 13
        0.89134
 23
       -0.32248
 33
       -1.01036
999
Fixed Shading:SHADING GROUP 1 FACE 71
  0
3DFACE
  8
Fixed Shading
 62
  9
 10
        0.89134
 20
       -0.03964
 30
       -0.72752
 11
        0.88788
 21
       -0.32390
 31
       -1.00895
 12
        0.89134
 22
       -0.32248
 32
       -1.01036
 13
        0.89134
 23
       -0.32248
 33
       -1.01036
999
Fixed Shading:Mir-SHADING GROUP 1 FACE 71
  0
3DFACE
  8
Fixed Shading
 62
  9
 10
        0.89134
 20
       -0.32248
 30
       -1.01036
 11
        0.88788
 21
       -0.32390
 31
       -1.00895
 12
        0.89134
 22
       -0.03964
 32
       -0.72752
 13
        0.89134
 23
       -0.03964
 33
       -0.72752
999
Fixed Shading:SHADING GROUP 1 FACE 72
  0
3DFACE
  8
Fixed Shading
 62
  9
 10
        1.09134
 20
       -0.28459
 30
       -0.48257
 11
        0.88788
 21
       -0.04105
 31
       -0.72610
 12
        0.89134
 22
       -0.03964
 32
       -0.72752
 13
        0.89134
 23
       -0.03964
 33
       -0.72752
999
Fixed Shading:Mir-SHADING GROUP 1 FACE 72
  0
3DFACE
  8
Fixed Shading
 62
  9
 10
        0.89134
 20
       -0.03964
 30
       -0.72752
 11
        0.88788
 21
       -0.04105
 31
       -0.72610
 12
        1.09134
 22
       -0.28459
 32
       -0.48257
 13
        1.09134
 23
       -0.28459
 33
       -0.48257
999
Fixed Shading:SHADING GROUP 1 FACE 73
  0
3DFACE
  8
Fixed Shading
 62
  9
 10
        0.59134
 20
       -0.28459
 30
       -0.48257
 11
        0.39134
 21
       -0.03964
 31
       -0.72752
 12
        0.39134
 22
       -0.32248
 32
       -1.01036
 13
        0.59134
 23
       -0.56743
 33
       -0.76541
999
Fixed Shading:Mir-SHADING GROUP 1 FACE 73
  0
3DFACE
  8
Fixed Shading
 62
  9
 10
        0.59134
 20
       -0.56743
 30
       -0.76541
 11
        0.39134
 21
       -0.32248
 31
       -1.01036
 12
        0.39134
 22
       -0.03964
 32
       -0.72752
 13
        0.59134
 23
       -0.28459
 33
       -0.48257
999
Fixed Shading:SHADING GROUP 1 FACE 74
  0
3DFACE
  8
Fixed Shading
 62
  9
 10
        0.58788
 20
       -0.56885
 30
       -0.76400
 11
        0.38788
 21
       -0.32390
 31
       -1.00895
 12
        0.38788
 22
       -0.04105
 32
       -0.72610
 13
        0.58788
 23
       -0.28600
 33
       -0.48115
999
Fixed Shading:Mir-SHADING GROUP 1 FACE 74
  0
3DFACE
  8
Fixed Shading
 62
  9
 10
        0.58788
 20
       -0.28600
 30
       -0.48115
 11
        0.38788
 21
       -0.04105
 31
       -0.72610
 12
        0.38788
 22
       -0.32390
 32
       -1.00895
 13
        0.58788
 23
       -0.56885
 33
       -0.76400
999
Fixed Shading:SHADING GROUP 1 FACE 75
  0
3DFACE
  8
Fixed Shading
 62
  9
 10
        0.59134
 20
       -0.56743
 30
       -0.76541
 11
        0.58788
 21
       -0.28600
 31
       -0.48115
 12
        0.59134
 22
       -0.28459
 32
       -0.48257
 13
        0.59134
 23
       -0.28459
 33
       -0.48257
999
Fixed Shading:Mir-SHADING GROUP 1 FACE 75
  0
3DFACE
  8
Fixed Shading
 62
  9
 10
        0.59134
 20
       -0.28459
 30
       -0.48257
 11
        0.58788
 21
       -0.28600
 31
       -0.48115
 12
        0.59134
 22
       -0.56743
 32
       -0.76541
 13
        0.59134
 23
       -0.56743
 33
       -0.76541
999
Fixed Shading:SHADING GROUP 1 FACE 76
  0
3DFACE
  8
Fixed Shading
 62
  9
 10
        0.39134
 20
       -0.32248
 30
       -1.01036
 11
        0.58788
 21
       -0.56885
 31
       -0.76400
 12
        0.59134
 22
       -0.56743
 32
       -0.76541
 13
        0.59134
 23
       -0.56743
 33
       -0.76541
999
Fixed Shading:Mir-SHADING GROUP 1 FACE 76
  0
3DFACE
  8
Fixed Shading
 62
  9
 10
        0.59134
 20
       -0.56743
 30
       -0.76541
 11
        0.58788
 21
       -0.56885
 31
       -0.76400
 12
        0.39134
 22
       -0.32248
 32
       -1.01036
 13
        0.39134
 23
       -0.32248
 33
       -1.01036
999
Fixed Shading:SHADING GROUP 1 FACE 77
  0
3DFACE
  8
Fixed Shading
 62
  9
 10
        0.39134
 20
       -0.03964
 30
       -0.72752
 11
        0.38788
 21
       -0.32390
 31
       -1.00895
 12
        0.39134
 22
       -0.32248
 32
       -1.01036
 13
        0.39134
 23
       -0.32248
 33
       -1.01036
999
Fixed Shading:Mir-SHADING GROUP 1 FACE 77
  0
3DFACE
  8
Fixed Shading
 62
  9
 10
        0.39134
 20
       -0.32248
 30
       -1.01036
 11
        0.38788
 21
       -0.32390
 31
       -1.00895
 12
        0.39134
 22
       -0.03964
 32
       -0.72752
 13
        0.39134
 23
       -0.03964
 33
       -0.72752
999
Fixed Shading:SHADING GROUP 1 FACE 78
  0
3DFACE
  8
Fixed Shading
 62
  9
 10
        0.59134
 20
       -0.28459
 30
       -0.48257
 11
        0.38788
 21
       -0.04105
 31
       -0.72610
 12
        0.39134
 22
       -0.03964
 32
       -0.72752
 13
        0.39134
 23
       -0.03964
 33
       -0.72752
999
Fixed Shading:Mir-SHADING GROUP 1 FACE 78
  0
3DFACE
  8
Fixed Shading
 62
  9
 10
        0.39134
 20
       -0.03964
 30
       -0.72752
 11
        0.38788
 21
       -0.04105
 31
       -0.72610
 12
        0.59134
 22
       -0.28459
 32
       -0.48257
 13
        0.59134
 23
       -0.28459
 33
       -0.48257
999
Fixed Shading:SHADING GROUP 1 FACE 79
  0
3DFACE
  8
Fixed Shading
 62
  9
 10
        0.09134
 20
       -0.28459
 30
       -0.48257
 11
       -0.10866
 21
       -0.03964
 31
       -0.72752
 12
       -0.10866
 22
       -0.32248
 32
       -1.01036
 13
        0.09134
 23
       -0.56743
 33
       -0.76541
999
Fixed Shading:Mir-SHADING GROUP 1 FACE 79
  0
3DFACE
  8
Fixed Shading
 62
  9
 10
        0.09134
 20
       -0.56743
 30
       -0.76541
 11
       -0.10866
 21
       -0.32248
 31
       -1.01036
 12
       -0.10866
 22
       -0.03964
 32
       -0.72752
 13
        0.09134
 23
       -0.28459
 33
       -0.48257
999
Fixed Shading:SHADING GROUP 1 FACE 80
  0
3DFACE
  8
Fixed Shading
 62
  9
 10
        0.08788
 20
       -0.56885
 30
       -0.76400
 11
       -0.11212
 21
       -0.32390
 31
       -1.00895
 12
       -0.11212
 22
       -0.04105
 32
       -0.72610
 13
        0.08788
 23
       -0.28600
 33
       -0.48115
999
Fixed Shading:Mir-SHADING GROUP 1 FACE 80
  0
3DFACE
  8
Fixed Shading
 62
  9
 10
        0.08788
 20
       -0.28600
 30
       -0.48115
 11
       -0.11212
 21
       -0.04105
 31
       -0.72610
 12
       -0.11212
 22
       -0.32390
 32
       -1.00895
 13
        0.08788
 23
       -0.56885
 33
       -0.76400
999
Fixed Shading:SHADING GROUP 1 FACE 81
  0
3DFACE
  8
Fixed Shading
 62
  9
 10
        0.09134
 20
       -0.56743
 30
       -0.76541
 11
        0.08788
 21
       -0.28600
 31
       -0.48115
 12
        0.09134
 22
       -0.28459
 32
       -0.48257
 13
        0.09134
 23
       -0.28459
 33
       -0.48257
999
Fixed Shading:Mir-SHADING GROUP 1 FACE 81
  0
3DFACE
  8
Fixed Shading
 62
  9
 10
        0.09134
 20
       -0.28459
 30
       -0.48257
 11
        0.08788
 21
       -0.28600
 31
       -0.48115
 12
        0.09134
 22
       -0.56743
 32
       -0.76541
 13
        0.09134
 23
       -0.56743
 33
       -0.76541
999
Fixed Shading:SHADING GROUP 1 FACE 82
  0
3DFACE
  8
Fixed Shading
 62
  9
 10
       -0.10866
 20
       -0.32248
 30
       -1.01036
 11
        0.08788
 21
       -0.56885
 31
       -0.76400
 12
        0.09134
 22
       -0.56743
 32
       -0.76541
 13
        0.09134
 23
       -0.56743
 33
       -0.76541
999
Fixed Shading:Mir-SHADING GROUP 1 FACE 82
  0
3DFACE
  8
Fixed Shading
 62
  9
 10
        0.09134
 20
       -0.56743
 30
       -0.76541
 11
        0.08788
 21
       -0.56885
 31
       -0.76400
 12
       -0.10866
 22
       -0.32248
 32
       -1.01036
 13
       -0.10866
 23
       -0.32248
 33
       -1.01036
999
Fixed Shading:SHADING GROUP 1 FACE 83
  0
3DFACE
  8
Fixed Shading
 62
  9
 10
       -0.10866
 20
       -0.03964
 30
       -0.72752
 11
       -0.11212
 21
       -0.32390
 31
       -1.00895
 12
       -0.10866
 22
       -0.32248
 32
       -1.01036
 13
       -0.10866
 23
       -0.32248
 33
       -1.01036
999
Fixed Shading:Mir-SHADING GROUP 1 FACE 83
  0
3DFACE
  8
Fixed Shading
 62
  9
 10
       -0.10866
 20
       -0.32248
 30
       -1.01036
 11
       -0.11212
 21
       -0.32390
 31
       -1.00895
 12
       -0.10866
 22
       -0.03964
 32
       -0.72752
 13
       -0.10866
 23
       -0.03964
 33
       -0.72752
999
Fixed Shading:SHADING GROUP 1 FACE 84
  0
3DFACE
  8
Fixed Shading
 62
  9
 10
        0.09134
 20
       -0.28459
 30
       -0.48257
 11
       -0.11212
 21
       -0.04105
 31
       -0.72610
 12
       -0.10866
 22
       -0.03964
 32
       -0.72752
 13
       -0.10866
 23
       -0.03964
 33
       -0.72752
999
Fixed Shading:Mir-SHADING GROUP 1 FACE 84
  0
3DFACE
  8
Fixed Shading
 62
  9
 10
       -0.10866
 20
       -0.03964
 30
       -0.72752
 11
       -0.11212
 21
       -0.04105
 31
       -0.72610
 12
        0.09134
 22
       -0.28459
 32
       -0.48257
 13
        0.09134
 23
       -0.28459
 33
       -0.48257
999
Fixed Shading:SHADING GROUP 1 FACE 85
  0
3DFACE
  8
Fixed Shading
 62
  9
 10
       -0.40866
 20
       -0.28459
 30
       -0.48257
 11
       -0.60866
 21
       -0.03964
 31
       -0.72752
 12
       -0.60866
 22
       -0.32248
 32
       -1.01036
 13
       -0.40866
 23
       -0.56743
 33
       -0.76541
999
Fixed Shading:Mir-SHADING GROUP 1 FACE 85
  0
3DFACE
  8
Fixed Shading
 62
  9
 10
       -0.40866
 20
       -0.56743
 30
       -0.76541
 11
       -0.60866
 21
       -0.32248
 31
       -1.01036
 12
       -0.60866
 22
       -0.03964
 32
       -0.72752
 13
       -0.40866
 23
       -0.28459
 33
       -0.48257
999
Fixed Shading:SHADING GROUP 1 FACE 86
  0
3DFACE
  8
Fixed Shading
 62
  9
 10
       -0.41212
 20
       -0.56885
 30
       -0.76400
 11
       -0.61212
 21
       -0.32390
 31
       -1.00895
 12
       -0.61212
 22
       -0.04105
 32
       -0.72610
 13
       -0.41212
 23
       -0.28600
 33
       -0.48115
999
Fixed Shading:Mir-SHADING GROUP 1 FACE 86
  0
3DFACE
  8
Fixed Shading
 62
  9
 10
       -0.41212
 20
       -0.28600
 30
       -0.48115
 11
       -0.61212
 21
       -0.04105
 31
       -0.72610
 12
       -0.61212
 22
       -0.32390
 32
       -1.00895
 13
       -0.41212
 23
       -0.56885
 33
       -0.76400
999
Fixed Shading:SHADING GROUP 1 FACE 87
  0
3DFACE
  8
Fixed Shading
 62
  9
 10
       -0.40866
 20
       -0.56743
 30
       -0.76541
 11
       -0.41212
 21
       -0.28600
 31
       -0.48115
 12
       -0.40866
 22
       -0.28459
 32
       -0.48257
 13
       -0.40866
 23
       -0.28459
 33
       -0.48257
999
Fixed Shading:Mir-SHADING GROUP 1 FACE 87
  0
3DFACE
  8
Fixed Shading
 62
  9
 10
       -0.40866
 20
       -0.28459
 30
       -0.48257
 11
       -0.41212
 21
       -0.28600
 31
       -0.48115
 12
       -0.40866
 22
       -0.56743
 32
       -0.76541
 13
       -0.40866
 23
       -0.56743
 33
       -0.76541
999
Fixed Shading:SHADING GROUP 1 FACE 88
  0
3DFACE
  8
Fixed Shading
 62
  9
 10
       -0.60866
 20
       -0.32248
 30
       -1.01036
 11
       -0.41212
 21
       -0.56885
 31
       -0.76400
 12
       -0.40866
 22
       -0.56743
 32
       -0.76541
 13
       -0.40866
 23
       -0.56743
 33
       -0.76541
999
Fixed Shading:Mir-SHADING GROUP 1 FACE 88
  0
3DFACE
  8
Fixed Shading
 62
  9
 10
       -0.40866
 20
       -0.56743
 30
       -0.76541
 11
       -0.41212
 21
       -0.56885
 31
       -0.76400
 12
       -0.60866
 22
       -0.32248
 32
       -1.01036
 13
       -0.60866
 23
       -0.32248
 33
       -1.01036
999
Fixed Shading:SHADING GROUP 1 FACE 89
  0
3DFACE
  8
Fixed Shading
 62
  9
 10
       -0.60866
 20
       -0.03964
 30
       -0.72752
 11
       -0.61212
 21
       -0.32390
 31
       -1.00895
 12
       -0.60866
 22
       -0.32248
 32
       -1.01036
 13
       -0.60866
 23
       -0.32248
 33
       -1.01036
999
Fixed Shading:Mir-SHADING GROUP 1 FACE 89
  0
3DFACE
  8
Fixed Shading
 62
  9
 10
       -0.60866
 20
       -0.32248
 30
       -1.01036
 11
       -0.61212
 21
       -0.32390
 31
       -1.00895
 12
       -0.60866
 22
       -0.03964
 32
       -0.72752
 13
       -0.60866
 23
       -0.03964
 33
       -0.72752
999
Fixed Shading:SHADING GROUP 1 FACE 90
  0
3DFACE
  8
Fixed Shading
 62
  9
 10
       -0.40866
 20
       -0.28459
 30
       -0.48257
 11
       -0.61212
 21
       -0.04105
 31
       -0.72610
 12
       -0.60866
 22
       -0.03964
 32
       -0.72752
 13
       -0.60866
 23
       -0.03964
 33
       -0.72752
999
Fixed Shading:Mir-SHADING GROUP 1 FACE 90
  0
3DFACE
  8
Fixed Shading
 62
  9
 10
       -0.60866
 20
       -0.03964
 30
       -0.72752
 11
       -0.61212
 21
       -0.04105
 31
       -0.72610
 12
       -0.40866
 22
       -0.28459
 32
       -0.48257
 13
       -0.40866
 23
       -0.28459
 33
       -0.48257
999
Fixed Shading:SHADING GROUP 1 FACE 91
  0
3DFACE
  8
Fixed Shading
 62
  9
 10
       -0.90866
 20
       -0.28459
 30
       -0.48257
 11
       -1.10866
 21
       -0.03964
 31
       -0.72752
 12
       -1.10866
 22
       -0.32248
 32
       -1.01036
 13
       -0.90866
 23
       -0.56743
 33
       -0.76541
999
Fixed Shading:Mir-SHADING GROUP 1 FACE 91
  0
3DFACE
  8
Fixed Shading
 62
  9
 10
       -0.90866
 20
       -0.56743
 30
       -0.76541
 11
       -1.10866
 21
       -0.32248
 31
       -1.01036
 12
       -1.10866
 22
       -0.03964
 32
       -0.72752
 13
       -0.90866
 23
       -0.28459
 33
       -0.48257
999
Fixed Shading:SHADING GROUP 1 FACE 92
  0
3DFACE
  8
Fixed Shading
 62
  9
 10
       -0.91212
 20
       -0.56885
 30
       -0.76400
 11
       -1.11212
 21
       -0.32390
 31
       -1.00895
 12
       -1.11212
 22
       -0.04105
 32
       -0.72610
 13
       -0.91212
 23
       -0.28600
 33
       -0.48115
999
Fixed Shading:Mir-SHADING GROUP 1 FACE 92
  0
3DFACE
  8
Fixed Shading
 62
  9
 10
       -0.91212
 20
       -0.28600
 30
       -0.48115
 11
       -1.11212
 21
       -0.04105
 31
       -0.72610
 12
       -1.11212
 22
       -0.32390
 32
       -1.00895
 13
       -0.91212
 23
       -0.56885
 33
       -0.76400
999
Fixed Shading:SHADING GROUP 1 FACE 93
  0
3DFACE
  8
Fixed Shading
 62
  9
 10
       -0.90866
 20
       -0.56743
 30
       -0.76541
 11
       -0.91212
 21
       -0.28600
 31
       -0.48115
 12
       -0.90866
 22
       -0.28459
 32
       -0.48257
 13
       -0.90866
 23
       -0.28459
 33
       -0.48257
999
Fixed Shading:Mir-SHADING GROUP 1 FACE 93
  0
3DFACE
  8
Fixed Shading
 62
  9
 10
       -0.90866
 20
       -0.28459
 30
       -0.48257
 11
       -0.91212
 21
       -0.28600
 31
       -0.48115
 12
       -0.90866
 22
       -0.56743
 32
       -0.76541
 13
       -0.90866
 23
       -0.56743
 33
       -0.76541
999
Fixed Shading:SHADING GROUP 1 FACE 94
  0
3DFACE
  8
Fixed Shading
 62
  9
 10
       -1.10866
 20
       -0.32248
 30
       -1.01036
 11
       -0.91212
 21
       -0.56885
 31
       -0.76400
 12
       -0.90866
 22
       -0.56743
 32
       -0.76541
 13
       -0.90866
 23
       -0.56743
 33
       -0.76541
999
Fixed Shading:Mir-SHADING GROUP 1 FACE 94
  0
3DFACE
  8
Fixed Shading
 62
  9
 10
       -0.90866
 20
       -0.56743
 30
       -0.76541
 11
       -0.91212
 21
       -0.56885
 31
       -0.76400
 12
       -1.10866
 22
       -0.32248
 32
       -1.01036
 13
       -1.10866
 23
       -0.32248
 33
       -1.01036
999
Fixed Shading:SHADING GROUP 1 FACE 95
  0
3DFACE
  8
Fixed Shading
 62
  9
 10
       -1.10866
 20
       -0.03964
 30
       -0.72752
 11
       -1.11212
 21
       -0.32390
 31
       -1.00895
 12
       -1.10866
 22
       -0.32248
 32
       -1.01036
 13
       -1.10866
 23
       -0.32248
 33
       -1.01036
999
Fixed Shading:Mir-SHADING GROUP 1 FACE 95
  0
3DFACE
  8
Fixed Shading
 62
  9
 10
       -1.10866
 20
       -0.32248
 30
       -1.01036
 11
       -1.11212
 21
       -0.32390
 31
       -1.00895
 12
       -1.10866
 22
       -0.03964
 32
       -0.72752
 13
       -1.10866
 23
       -0.03964
 33
       -0.72752
999
Fixed Shading:SHADING GROUP 1 FACE 96
  0
3DFACE
  8
Fixed Shading
 62
  9
 10
       -0.90866
 20
       -0.28459
 30
       -0.48257
 11
       -1.11212
 21
       -0.04105
 31
       -0.72610
 12
       -1.10866
 22
       -0.03964
 32
       -0.72752
 13
       -1.10866
 23
       -0.03964
 33
       -0.72752
999
Fixed Shading:Mir-SHADING GROUP 1 FACE 96
  0
3DFACE
  8
Fixed Shading
 62
  9
 10
       -1.10866
 20
       -0.03964
 30
       -0.72752
 11
       -1.11212
 21
       -0.04105
 31
       -0.72610
 12
       -0.90866
 22
       -0.28459
 32
       -0.48257
 13
       -0.90866
 23
       -0.28459
 33
       -0.48257
999
Fixed Shading:SHADING GROUP 1 FACE 97
  0
3DFACE
  8
Fixed Shading
 62
  9
 10
       -1.40866
 20
       -0.28459
 30
       -0.48257
 11
       -1.60866
 21
       -0.03964
 31
       -0.72752
 12
       -1.60866
 22
       -0.32248
 32
       -1.01036
 13
       -1.40866
 23
       -0.56743
 33
       -0.76541
999
Fixed Shading:Mir-SHADING GROUP 1 FACE 97
  0
3DFACE
  8
Fixed Shading
 62
  9
 10
       -1.40866
 20
       -0.56743
 30
       -0.76541
 11
       -1.60866
 21
       -0.32248
 31
       -1.01036
 12
       -1.60866
 22
       -0.03964
 32
       -0.72752
 13
       -1.40866
 23
       -0.28459
 33
       -0.48257
999
Fixed Shading:SHADING GROUP 1 FACE 98
  0
3DFACE
  8
Fixed Shading
 62
  9
 10
       -1.41212
 20
       -0.56885
 30
       -0.76400
 11
       -1.61212
 21
       -0.32390
 31
       -1.00895
 12
       -1.61212
 22
       -0.04105
 32
       -0.72610
 13
       -1.41212
 23
       -0.28600
 33
       -0.48115
999
Fixed Shading:Mir-SHADING GROUP 1 FACE 98
  0
3DFACE
  8
Fixed Shading
 62
  9
 10
       -1.41212
 20
       -0.28600
 30
       -0.48115
 11
       -1.61212
 21
       -0.04105
 31
       -0.72610
 12
       -1.61212
 22
       -0.32390
 32
       -1.00895
 13
       -1.41212
 23
       -0.56885
 33
       -0.76400
999
Fixed Shading:SHADING GROUP 1 FACE 99
  0
3DFACE
  8
Fixed Shading
 62
  9
 10
       -1.40866
 20
       -0.56743
 30
       -0.76541
 11
       -1.41212
 21
       -0.28600
 31
       -0.48115
 12
       -1.40866
 22
       -0.28459
 32
       -0.48257
 13
       -1.40866
 23
       -0.28459
 33
       -0.48257
999
Fixed Shading:Mir-SHADING GROUP 1 FACE 99
  0
3DFACE
  8
Fixed Shading
 62
  9
 10
       -1.40866
 20
       -0.28459
 30
       -0.48257
 11
       -1.41212
 21
       -0.28600
 31
       -0.48115
 12
       -1.40866
 22
       -0.56743
 32
       -0.76541
 13
       -1.40866
 23
       -0.56743
 33
       -0.76541
999
Fixed Shading:SHADING GROUP 1 FACE 100
  0
3DFACE
  8
Fixed Shading
 62
  9
 10
       -1.60866
 20
       -0.32248
 30
       -1.01036
 11
       -1.41212
 21
       -0.56885
 31
       -0.76400
 12
       -1.40866
 22
       -0.56743
 32
       -0.76541
 13
       -1.40866
 23
       -0.56743
 33
       -0.76541
999
Fixed Shading:Mir-SHADING GROUP 1 FACE 100
  0
3DFACE
  8
Fixed Shading
 62
  9
 10
       -1.40866
 20
       -0.56743
 30
       -0.76541
 11
       -1.41212
 21
       -0.56885
 31
       -0.76400
 12
       -1.60866
 22
       -0.32248
 32
       -1.01036
 13
       -1.60866
 23
       -0.32248
 33
       -1.01036
999
Fixed Shading:SHADING GROUP 1 FACE 101
  0
3DFACE
  8
Fixed Shading
 62
  9
 10
       -1.60866
 20
       -0.03964
 30
       -0.72752
 11
       -1.61212
 21
       -0.32390
 31
       -1.00895
 12
       -1.60866
 22
       -0.32248
 32
       -1.01036
 13
       -1.60866
 23
       -0.32248
 33
       -1.01036
999
Fixed Shading:Mir-SHADING GROUP 1 FACE 101
  0
3DFACE
  8
Fixed Shading
 62
  9
 10
       -1.60866
 20
       -0.32248
 30
       -1.01036
 11
       -1.61212
 21
       -0.32390
 31
       -1.00895
 12
       -1.60866
 22
       -0.03964
 32
       -0.72752
 13
       -1.60866
 23
       -0.03964
 33
       -0.72752
999
Fixed Shading:SHADING GROUP 1 FACE 102
  0
3DFACE
  8
Fixed Shading
 62
  9
 10
       -1.40866
 20
       -0.28459
 30
       -0.48257
 11
       -1.61212
 21
       -0.04105
 31
       -0.72610
 12
       -1.60866
 22
       -0.03964
 32
       -0.72752
 13
       -1.60866
 23
       -0.03964
 33
       -0.72752
999
Fixed Shading:Mir-SHADING GROUP 1 FACE 102
  0
3DFACE
  8
Fixed Shading
 62
  9
 10
       -1.60866
 20
       -0.03964
 30
       -0.72752
 11
       -1.61212
 21
       -0.04105
 31
       -0.72610
 12
       -1.40866
 22
       -0.28459
 32
       -0.48257
 13
       -1.40866
 23
       -0.28459
 33
       -0.48257
999
Fixed Shading:SHADING GROUP 1 FACE 103
  0
3DFACE
  8
Fixed Shading
 62
  9
 10
       -1.90866
 20
       -0.28459
 30
       -0.48257
 11
       -2.10866
 21
       -0.03964
 31
       -0.72752
 12
       -2.10866
 22
       -0.32248
 32
       -1.01036
 13
       -1.90866
 23
       -0.56743
 33
       -0.76541
999
Fixed Shading:Mir-SHADING GROUP 1 FACE 103
  0
3DFACE
  8
Fixed Shading
 62
  9
 10
       -1.90866
 20
       -0.56743
 30
       -0.76541
 11
       -2.10866
 21
       -0.32248
 31
       -1.01036
 12
       -2.10866
 22
       -0.03964
 32
       -0.72752
 13
       -1.90866
 23
       -0.28459
 33
       -0.48257
999
Fixed Shading:SHADING GROUP 1 FACE 104
  0
3DFACE
  8
Fixed Shading
 62
  9
 10
       -1.91212
 20
       -0.56885
 30
       -0.76400
 11
       -2.11212
 21
       -0.32390
 31
       -1.00895
 12
       -2.11212
 22
       -0.04105
 32
       -0.72610
 13
       -1.91212
 23
       -0.28600
 33
       -0.48115
999
Fixed Shading:Mir-SHADING GROUP 1 FACE 104
  0
3DFACE
  8
Fixed Shading
 62
  9
 10
       -1.91212
 20
       -0.28600
 30
       -0.48115
 11
       -2.11212
 21
       -0.04105
 31
       -0.72610
 12
       -2.11212
 22
       -0.32390
 32
       -1.00895
 13
       -1.91212
 23
       -0.56885
 33
       -0.76400
999
Fixed Shading:SHADING GROUP 1 FACE 105
  0
3DFACE
  8
Fixed Shading
 62
  9
 10
       -1.90866
 20
       -0.56743
 30
       -0.76541
 11
       -1.91212
 21
       -0.28600
 31
       -0.48115
 12
       -1.90866
 22
       -0.28459
 32
       -0.48257
 13
       -1.90866
 23
       -0.28459
 33
       -0.48257
999
Fixed Shading:Mir-SHADING GROUP 1 FACE 105
  0
3DFACE
  8
Fixed Shading
 62
  9
 10
       -1.90866
 20
       -0.28459
 30
       -0.48257
 11
       -1.91212
 21
       -0.28600
 31
       -0.48115
 12
       -1.90866
 22
       -0.56743
 32
       -0.76541
 13
       -1.90866
 23
       -0.56743
 33
       -0.76541
999
Fixed Shading:SHADING GROUP 1 FACE 106
  0
3DFACE
  8
Fixed Shading
 62
  9
 10
       -2.10866
 20
       -0.32248
 30
       -1.01036
 11
       -1.91212
 21
       -0.56885
 31
       -0.76400
 12
       -1.90866
 22
       -0.56743
 32
       -0.76541
 13
       -1.90866
 23
       -0.56743
 33
       -0.76541
999
Fixed Shading:Mir-SHADING GROUP 1 FACE 106
  0
3DFACE
  8
Fixed Shading
 62
  9
 10
       -1.90866
 20
       -0.56743
 30
       -0.76541
 11
       -1.91212
 21
       -0.56885
 31
       -0.76400
 12
       -2.10866
 22
       -0.32248
 32
       -1.01036
 13
       -2.10866
 23
       -0.32248
 33
       -1.01036
999
Fixed Shading:SHADING GROUP 1 FACE 107
  0
3DFACE
  8
Fixed Shading
 62
  9
 10
       -2.10866
 20
       -0.03964
 30
       -0.72752
 11
       -2.11212
 21
       -0.32390
 31
       -1.00895
 12
       -2.10866
 22
       -0.32248
 32
       -1.01036
 13
       -2.10866
 23
       -0.32248
 33
       -1.01036
999
Fixed Shading:Mir-SHADING GROUP 1 FACE 107
  0
3DFACE
  8
Fixed Shading
 62
  9
 10
       -2.10866
 20
       -0.32248
 30
       -1.01036
 11
       -2.11212
 21
       -0.32390
 31
       -1.00895
 12
       -2.10866
 22
       -0.03964
 32
       -0.72752
 13
       -2.10866
 23
       -0.03964
 33
       -0.72752
999
Fixed Shading:SHADING GROUP 1 FACE 108
  0
3DFACE
  8
Fixed Shading
 62
  9
 10
       -1.90866
 20
       -0.28459
 30
       -0.48257
 11
       -2.11212
 21
       -0.04105
 31
       -0.72610
 12
       -2.10866
 22
       -0.03964
 32
       -0.72752
 13
       -2.10866
 23
       -0.03964
 33
       -0.72752
999
Fixed Shading:Mir-SHADING GROUP 1 FACE 108
  0
3DFACE
  8
Fixed Shading
 62
  9
 10
       -2.10866
 20
       -0.03964
 30
       -0.72752
 11
       -2.11212
 21
       -0.04105
 31
       -0.72610
 12
       -1.90866
 22
       -0.28459
 32
       -0.48257
 13
       -1.90866
 23
       -0.28459
 33
       -0.48257
999
Fixed Shading:SHADING GROUP 1 FACE 109
  0
3DFACE
  8
Fixed Shading
 62
  9
 10
        2.09134
 20
       -0.28459
 30
        0.01743
 11
        1.89134
 21
       -0.03964
 31
       -0.22752
 12
        1.89134
 22
       -0.32248
 32
       -0.51036
 13
        2.09134
 23
       -0.56743
 33
       -0.26541
999
Fixed Shading:Mir-SHADING GROUP 1 FACE 109
  0
3DFACE
  8
Fixed Shading
 62
  9
 10
        2.09134
 20
       -0.56743
 30
       -0.26541
 11
        1.89134
 21
       -0.32248
 31
       -0.51036
 12
        1.89134
 22
       -0.03964
 32
       -0.22752
 13
        2.09134
 23
       -0.28459
 33
        0.01743
999
Fixed Shading:SHADING GROUP 1 FACE 110
  0
3DFACE
  8
Fixed Shading
 62
  9
 10
        2.08788
 20
       -0.56885
 30
       -0.26400
 11
        1.88788
 21
       -0.32390
 31
       -0.50895
 12
        1.88788
 22
       -0.04105
 32
       -0.22610
 13
        2.08788
 23
       -0.28600
 33
        0.01885
999
Fixed Shading:Mir-SHADING GROUP 1 FACE 110
  0
3DFACE
  8
Fixed Shading
 62
  9
 10
        2.08788
 20
       -0.28600
 30
        0.01885
 11
        1.88788
 21
       -0.04105
 31
       -0.22610
 12
        1.88788
 22
       -0.32390
 32
       -0.50895
 13
        2.08788
 23
       -0.56885
 33
       -0.26400
999
Fixed Shading:SHADING GROUP 1 FACE 111
  0
3DFACE
  8
Fixed Shading
 62
  9
 10
        2.09134
 20
       -0.56743
 30
       -0.26541
 11
        2.08788
 21
       -0.28600
 31
        0.01885
 12
        2.09134
 22
       -0.28459
 32
        0.01743
 13
        2.09134
 23
       -0.28459
 33
        0.01743
999
Fixed Shading:Mir-SHADING GROUP 1 FACE 111
  0
3DFACE
  8
Fixed Shading
 62
  9
 10
        2.09134
 20
       -0.28459
 30
        0.01743
 11
        2.08788
 21
       -0.28600
 31
        0.01885
 12
        2.09134
 22
       -0.56743
 32
       -0.26541
 13
        2.09134
 23
       -0.56743
 33
       -0.26541
999
Fixed Shading:SHADING GROUP 1 FACE 112
  0
3DFACE
  8
Fixed Shading
 62
  9
 10
        1.89134
 20
       -0.32248
 30
       -0.51036
 11
        2.08788
 21
       -0.56885
 31
       -0.26400
 12
        2.09134
 22
       -0.56743
 32
       -0.26541
 13
        2.09134
 23
       -0.56743
 33
       -0.26541
999
Fixed Shading:Mir-SHADING GROUP 1 FACE 112
  0
3DFACE
  8
Fixed Shading
 62
  9
 10
        2.09134
 20
       -0.56743
 30
       -0.26541
 11
        2.08788
 21
       -0.56885
 31
       -0.26400
 12
        1.89134
 22
       -0.32248
 32
       -0.51036
 13
        1.89134
 23
       -0.32248
 33
       -0.51036
999
Fixed Shading:SHADING GROUP 1 FACE 113
  0
3DFACE
  8
Fixed Shading
 62
  9
 10
        1.89134
 20
       -0.03964
 30
       -0.22752
 11
        1.88788
 21
       -0.32390
 31
       -0.50895
 12
        1.89134
 22
       -0.32248
 32
       -0.51036
 13
        1.89134
 23
       -0.32248
 33
       -0.51036
999
Fixed Shading:Mir-SHADING GROUP 1 FACE 113
  0
3DFACE
  8
Fixed Shading
 62
  9
 10
        1.89134
 20
       -0.32248
 30
       -0.51036
 11
        1.88788
 21
       -0.32390
 31
       -0.50895
 12
        1.89134
 22
       -0.03964
 32
       -0.22752
 13
        1.89134
 23
       -0.03964
 33
       -0.22752
999
Fixed Shading:SHADING GROUP 1 FACE 114
  0
3DFACE
  8
Fixed Shading
 62
  9
 10
        2.09134
 20
       -0.28459
 30
        0.01743
 11
        1.88788
 21
       -0.04105
 31
       -0.22610
 12
        1.89134
 22
       -0.03964
 32
       -0.22752
 13
        1.89134
 23
       -0.03964
 33
       -0.22752
999
Fixed Shading:Mir-SHADING GROUP 1 FACE 114
  0
3DFACE
  8
Fixed Shading
 62
  9
 10
        1.89134
 20
       -0.03964
 30
       -0.22752
 11
        1.88788
 21
       -0.04105
 31
       -0.22610
 12
        2.09134
 22
       -0.28459
 32
        0.01743
 13
        2.09134
 23
       -0.28459
 33
        0.01743
999
Fixed Shading:SHADING GROUP 1 FACE 115
  0
3DFACE
  8
Fixed Shading
 62
  9
 10
        1.59134
 20
       -0.28459
 30
        0.01743
 11
        1.39134
 21
       -0.03964
 31
       -0.22752
 12
        1.39134
 22
       -0.32248
 32
       -0.51036
 13
        1.59134
 23
       -0.56743
 33
       -0.26541
999
Fixed Shading:Mir-SHADING GROUP 1 FACE 115
  0
3DFACE
  8
Fixed Shading
 62
  9
 10
        1.59134
 20
       -0.56743
 30
       -0.26541
 11
        1.39134
 21
       -0.32248
 31
       -0.51036
 12
        1.39134
 22
       -0.03964
 32
       -0.22752
 13
        1.59134
 23
       -0.28459
 33
        0.01743
999
Fixed Shading:SHADING GROUP 1 FACE 116
  0
3DFACE
  8
Fixed Shading
 62
  9
 10
        1.58788
 20
       -0.56885
 30
       -0.26400
 11
        1.38788
 21
       -0.32390
 31
       -0.50895
 12
        1.38788
 22
       -0.04105
 32
       -0.22610
 13
        1.58788
 23
       -0.28600
 33
        0.01885
999
Fixed Shading:Mir-SHADING GROUP 1 FACE 116
  0
3DFACE
  8
Fixed Shading
 62
  9
 10
        1.58788
 20
       -0.28600
 30
        0.01885
 11
        1.38788
 21
       -0.04105
 31
       -0.22610
 12
        1.38788
 22
       -0.32390
 32
       -0.50895
 13
        1.58788
 23
       -0.56885
 33
       -0.26400
999
Fixed Shading:SHADING GROUP 1 FACE 117
  0
3DFACE
  8
Fixed Shading
 62
  9
 10
        1.59134
 20
       -0.56743
 30
       -0.26541
 11
        1.58788
 21
       -0.28600
 31
        0.01885
 12
        1.59134
 22
       -0.28459
 32
        0.01743
 13
        1.59134
 23
       -0.28459
 33
        0.01743
999
Fixed Shading:Mir-SHADING GROUP 1 FACE 117
  0
3DFACE
  8
Fixed Shading
 62
  9
 10
        1.59134
 20
       -0.28459
 30
        0.01743
 11
        1.58788
 21
       -0.28600
 31
        0.01885
 12
        1.59134
 22
       -0.56743
 32
       -0.26541
 13
        1.59134
 23
       -0.56743
 33
       -0.26541
999
Fixed Shading:SHADING GROUP 1 FACE 118
  0
3DFACE
  8
Fixed Shading
 62
  9
 10
        1.39134
 20
       -0.32248
 30
       -0.51036
 11
        1.58788
 21
       -0.56885
 31
       -0.26400
 12
        1.59134
 22
       -0.56743
 32
       -0.26541
 13
        1.59134
 23
       -0.56743
 33
       -0.26541
999
Fixed Shading:Mir-SHADING GROUP 1 FACE 118
  0
3DFACE
  8
Fixed Shading
 62
  9
 10
        1.59134
 20
       -0.56743
 30
       -0.26541
 11
        1.58788
 21
       -0.56885
 31
       -0.26400
 12
        1.39134
 22
       -0.32248
 32
       -0.51036
 13
        1.39134
 23
       -0.32248
 33
       -0.51036
999
Fixed Shading:SHADING GROUP 1 FACE 119
  0
3DFACE
  8
Fixed Shading
 62
  9
 10
        1.39134
 20
       -0.03964
 30
       -0.22752
 11
        1.38788
 21
       -0.32390
 31
       -0.50895
 12
        1.39134
 22
       -0.32248
 32
       -0.51036
 13
        1.39134
 23
       -0.32248
 33
       -0.51036
999
Fixed Shading:Mir-SHADING GROUP 1 FACE 119
  0
3DFACE
  8
Fixed Shading
 62
  9
 10
        1.39134
 20
       -0.32248
 30
       -0.51036
 11
        1.38788
 21
       -0.32390
 31
       -0.50895
 12
        1.39134
 22
       -0.03964
 32
       -0.22752
 13
        1.39134
 23
       -0.03964
 33
       -0.22752
999
Fixed Shading:SHADING GROUP 1 FACE 120
  0
3DFACE
  8
Fixed Shading
 62
  9
 10
        1.59134
 20
       -0.28459
 30
        0.01743
 11
        1.38788
 21
       -0.04105
 31
       -0.22610
 12
        1.39134
 22
       -0.03964
 32
       -0.22752
 13
        1.39134
 23
       -0.03964
 33
       -0.22752
999
Fixed Shading:Mir-SHADING GROUP 1 FACE 120
  0
3DFACE
  8
Fixed Shading
 62
  9
 10
        1.39134
 20
       -0.03964
 30
       -0.22752
 11
        1.38788
 21
       -0.04105
 31
       -0.22610
 12
        1.59134
 22
       -0.28459
 32
        0.01743
 13
        1.59134
 23
       -0.28459
 33
        0.01743
999
Fixed Shading:SHADING GROUP 1 FACE 121
  0
3DFACE
  8
Fixed Shading
 62
  9
 10
        1.09134
 20
       -0.28459
 30
        0.01743
 11
        0.89134
 21
       -0.03964
 31
       -0.22752
 12
        0.89134
 22
       -0.32248
 32
       -0.51036
 13
        1.09134
 23
       -0.56743
 33
       -0.26541
999
Fixed Shading:Mir-SHADING GROUP 1 FACE 121
  0
3DFACE
  8
Fixed Shading
 62
  9
 10
        1.09134
 20
       -0.56743
 30
       -0.26541
 11
        0.89134
 21
       -0.32248
 31
       -0.51036
 12
        0.89134
 22
       -0.03964
 32
       -0.22752
 13
[...]
 32
        1.45308
 13
        0.09134
 23
       -0.47469
 33
        1.45308
999
Fixed Shading:Mir-SHADING GROUP 1 FACE 297
  0
3DFACE
  8
Fixed Shading
 62
  9
 10
        0.09134
 20
       -0.47469
 30
        1.45308
 11
        0.08788
 21
       -0.47669
 31
        1.45311
 12
        0.09134
 22
       -0.48167
 32
        1.05314
 13
        0.09134
 23
       -0.48167
 33
        1.05314
999
Fixed Shading:SHADING GROUP 1 FACE 298
  0
3DFACE
  8
Fixed Shading
 62
  9
 10
       -0.10866
 20
       -0.13531
 30
        1.04709
 11
        0.08788
 21
       -0.48367
 31
        1.05318
 12
        0.09134
 22
       -0.48167
 32
        1.05314
 13
        0.09134
 23
       -0.48167
 33
        1.05314
999
Fixed Shading:Mir-SHADING GROUP 1 FACE 298
  0
3DFACE
  8
Fixed Shading
 62
  9
 10
        0.09134
 20
       -0.48167
 30
        1.05314
 11
        0.08788
 21
       -0.48367
 31
        1.05318
 12
       -0.10866
 22
       -0.13531
 32
        1.04709
 13
       -0.10866
 23
       -0.13531
 33
        1.04709
999
Fixed Shading:SHADING GROUP 1 FACE 299
  0
3DFACE
  8
Fixed Shading
 62
  9
 10
       -0.10866
 20
       -0.12833
 30
        1.44703
 11
       -0.11212
 21
       -0.13731
 31
        1.04713
 12
       -0.10866
 22
       -0.13531
 32
        1.04709
 13
       -0.10866
 23
       -0.13531
 33
        1.04709
999
Fixed Shading:Mir-SHADING GROUP 1 FACE 299
  0
3DFACE
  8
Fixed Shading
 62
  9
 10
       -0.10866
 20
       -0.13531
 30
        1.04709
 11
       -0.11212
 21
       -0.13731
 31
        1.04713
 12
       -0.10866
 22
       -0.12833
 32
        1.44703
 13
       -0.10866
 23
       -0.12833
 33
        1.44703
999
Fixed Shading:SHADING GROUP 1 FACE 300
  0
3DFACE
  8
Fixed Shading
 62
  9
 10
        0.09134
 20
       -0.47469
 30
        1.45308
 11
       -0.11212
 21
       -0.13033
 31
        1.44707
 12
       -0.10866
 22
       -0.12833
 32
        1.44703
 13
       -0.10866
 23
       -0.12833
 33
        1.44703
999
Fixed Shading:Mir-SHADING GROUP 1 FACE 300
  0
3DFACE
  8
Fixed Shading
 62
  9
 10
       -0.10866
 20
       -0.12833
 30
        1.44703
 11
       -0.11212
 21
       -0.13033
 31
        1.44707
 12
        0.09134
 22
       -0.47469
 32
        1.45308
 13
        0.09134
 23
       -0.47469
 33
        1.45308
999
Fixed Shading:SHADING GROUP 1 FACE 301
  0
3DFACE
  8
Fixed Shading
 62
  9
 10
       -0.40866
 20
       -0.47469
 30
        1.45308
 11
       -0.60866
 21
       -0.12833
 31
        1.44703
 12
       -0.60866
 22
       -0.13531
 32
        1.04709
 13
       -0.40866
 23
       -0.48167
 33
        1.05314
999
Fixed Shading:Mir-SHADING GROUP 1 FACE 301
  0
3DFACE
  8
Fixed Shading
 62
  9
 10
       -0.40866
 20
       -0.48167
 30
        1.05314
 11
       -0.60866
 21
       -0.13531
 31
        1.04709
 12
       -0.60866
 22
       -0.12833
 32
        1.44703
 13
       -0.40866
 23
       -0.47469
 33
        1.45308
999
Fixed Shading:SHADING GROUP 1 FACE 302
  0
3DFACE
  8
Fixed Shading
 62
  9
 10
       -0.41212
 20
       -0.48367
 30
        1.05318
 11
       -0.61212
 21
       -0.13731
 31
        1.04713
 12
       -0.61212
 22
       -0.13033
 32
        1.44707
 13
       -0.41212
 23
       -0.47669
 33
        1.45311
999
Fixed Shading:Mir-SHADING GROUP 1 FACE 302
  0
3DFACE
  8
Fixed Shading
 62
  9
 10
       -0.41212
 20
       -0.47669
 30
        1.45311
 11
       -0.61212
 21
       -0.13033
 31
        1.44707
 12
       -0.61212
 22
       -0.13731
 32
        1.04713
 13
       -0.41212
 23
       -0.48367
 33
        1.05318
999
Fixed Shading:SHADING GROUP 1 FACE 303
  0
3DFACE
  8
Fixed Shading
 62
  9
 10
       -0.40866
 20
       -0.48167
 30
        1.05314
 11
       -0.41212
 21
       -0.47669
 31
        1.45311
 12
       -0.40866
 22
       -0.47469
 32
        1.45308
 13
       -0.40866
 23
       -0.47469
 33
        1.45308
999
Fixed Shading:Mir-SHADING GROUP 1 FACE 303
  0
3DFACE
  8
Fixed Shading
 62
  9
 10
       -0.40866
 20
       -0.47469
 30
        1.45308
 11
       -0.41212
 21
       -0.47669
 31
        1.45311
 12
       -0.40866
 22
       -0.48167
 32
        1.05314
 13
       -0.40866
 23
       -0.48167
 33
        1.05314
999
Fixed Shading:SHADING GROUP 1 FACE 304
  0
3DFACE
  8
Fixed Shading
 62
  9
 10
       -0.60866
 20
       -0.13531
 30
        1.04709
 11
       -0.41212
 21
       -0.48367
 31
        1.05318
 12
       -0.40866
 22
       -0.48167
 32
        1.05314
 13
       -0.40866
 23
       -0.48167
 33
        1.05314
999
Fixed Shading:Mir-SHADING GROUP 1 FACE 304
  0
3DFACE
  8
Fixed Shading
 62
  9
 10
       -0.40866
 20
       -0.48167
 30
        1.05314
 11
       -0.41212
 21
       -0.48367
 31
        1.05318
 12
       -0.60866
 22
       -0.13531
 32
        1.04709
 13
       -0.60866
 23
       -0.13531
 33
        1.04709
999
Fixed Shading:SHADING GROUP 1 FACE 305
  0
3DFACE
  8
Fixed Shading
 62
  9
 10
       -0.60866
 20
       -0.12833
 30
        1.44703
 11
       -0.61212
 21
       -0.13731
 31
        1.04713
 12
       -0.60866
 22
       -0.13531
 32
        1.04709
 13
       -0.60866
 23
       -0.13531
 33
        1.04709
999
Fixed Shading:Mir-SHADING GROUP 1 FACE 305
  0
3DFACE
  8
Fixed Shading
 62
  9
 10
       -0.60866
 20
       -0.13531
 30
        1.04709
 11
       -0.61212
 21
       -0.13731
 31
        1.04713
 12
       -0.60866
 22
       -0.12833
 32
        1.44703
 13
       -0.60866
 23
       -0.12833
 33
        1.44703
999
Fixed Shading:SHADING GROUP 1 FACE 306
  0
3DFACE
  8
Fixed Shading
 62
  9
 10
       -0.40866
 20
       -0.47469
 30
        1.45308
 11
       -0.61212
 21
       -0.13033
 31
        1.44707
 12
       -0.60866
 22
       -0.12833
 32
        1.44703
 13
       -0.60866
 23
       -0.12833
 33
        1.44703
999
Fixed Shading:Mir-SHADING GROUP 1 FACE 306
  0
3DFACE
  8
Fixed Shading
 62
  9
 10
       -0.60866
 20
       -0.12833
 30
        1.44703
 11
       -0.61212
 21
       -0.13033
 31
        1.44707
 12
       -0.40866
 22
       -0.47469
 32
        1.45308
 13
       -0.40866
 23
       -0.47469
 33
        1.45308
999
Fixed Shading:SHADING GROUP 1 FACE 307
  0
3DFACE
  8
Fixed Shading
 62
  9
 10
       -0.90866
 20
       -0.47469
 30
        1.45308
 11
       -1.10866
 21
       -0.12833
 31
        1.44703
 12
       -1.10866
 22
       -0.13531
 32
        1.04709
 13
       -0.90866
 23
       -0.48167
 33
        1.05314
999
Fixed Shading:Mir-SHADING GROUP 1 FACE 307
  0
3DFACE
  8
Fixed Shading
 62
  9
 10
       -0.90866
 20
       -0.48167
 30
        1.05314
 11
       -1.10866
 21
       -0.13531
 31
        1.04709
 12
       -1.10866
 22
       -0.12833
 32
        1.44703
 13
       -0.90866
 23
       -0.47469
 33
        1.45308
999
Fixed Shading:SHADING GROUP 1 FACE 308
  0
3DFACE
  8
Fixed Shading
 62
  9
 10
       -0.91212
 20
       -0.48367
 30
        1.05318
 11
       -1.11212
 21
       -0.13731
 31
        1.04713
 12
       -1.11212
 22
       -0.13033
 32
        1.44707
 13
       -0.91212
 23
       -0.47669
 33
        1.45311
999
Fixed Shading:Mir-SHADING GROUP 1 FACE 308
  0
3DFACE
  8
Fixed Shading
 62
  9
 10
       -0.91212
 20
       -0.47669
 30
        1.45311
 11
       -1.11212
 21
       -0.13033
 31
        1.44707
 12
       -1.11212
 22
       -0.13731
 32
        1.04713
 13
       -0.91212
 23
       -0.48367
 33
        1.05318
999
Fixed Shading:SHADING GROUP 1 FACE 309
  0
3DFACE
  8
Fixed Shading
 62
  9
 10
       -0.90866
 20
       -0.48167
 30
        1.05314
 11
       -0.91212
 21
       -0.47669
 31
        1.45311
 12
       -0.90866
 22
       -0.47469
 32
        1.45308
 13
       -0.90866
 23
       -0.47469
 33
        1.45308
999
Fixed Shading:Mir-SHADING GROUP 1 FACE 309
  0
3DFACE
  8
Fixed Shading
 62
  9
 10
       -0.90866
 20
       -0.47469
 30
        1.45308
 11
       -0.91212
 21
       -0.47669
 31
        1.45311
 12
       -0.90866
 22
       -0.48167
 32
        1.05314
 13
       -0.90866
 23
       -0.48167
 33
        1.05314
999
Fixed Shading:SHADING GROUP 1 FACE 310
  0
3DFACE
  8
Fixed Shading
 62
  9
 10
       -1.10866
 20
       -0.13531
 30
        1.04709
 11
       -0.91212
 21
       -0.48367
 31
        1.05318
 12
       -0.90866
 22
       -0.48167
 32
        1.05314
 13
       -0.90866
 23
       -0.48167
 33
        1.05314
999
Fixed Shading:Mir-SHADING GROUP 1 FACE 310
  0
3DFACE
  8
Fixed Shading
 62
  9
 10
       -0.90866
 20
       -0.48167
 30
        1.05314
 11
       -0.91212
 21
       -0.48367
 31
        1.05318
 12
       -1.10866
 22
       -0.13531
 32
        1.04709
 13
       -1.10866
 23
       -0.13531
 33
        1.04709
999
Fixed Shading:SHADING GROUP 1 FACE 311
  0
3DFACE
  8
Fixed Shading
 62
  9
 10
       -1.10866
 20
       -0.12833
 30
        1.44703
 11
       -1.11212
 21
       -0.13731
 31
        1.04713
 12
       -1.10866
 22
       -0.13531
 32
        1.04709
 13
       -1.10866
 23
       -0.13531
 33
        1.04709
999
Fixed Shading:Mir-SHADING GROUP 1 FACE 311
  0
3DFACE
  8
Fixed Shading
 62
  9
 10
       -1.10866
 20
       -0.13531
 30
        1.04709
 11
       -1.11212
 21
       -0.13731
 31
        1.04713
 12
       -1.10866
 22
       -0.12833
 32
        1.44703
 13
       -1.10866
 23
       -0.12833
 33
        1.44703
999
Fixed Shading:SHADING GROUP 1 FACE 312
  0
3DFACE
  8
Fixed Shading
 62
  9
 10
       -0.90866
 20
       -0.47469
 30
        1.45308
 11
       -1.11212
 21
       -0.13033
 31
        1.44707
 12
       -1.10866
 22
       -0.12833
 32
        1.44703
 13
       -1.10866
 23
       -0.12833
 33
        1.44703
999
Fixed Shading:Mir-SHADING GROUP 1 FACE 312
  0
3DFACE
  8
Fixed Shading
 62
  9
 10
       -1.10866
 20
       -0.12833
 30
        1.44703
 11
       -1.11212
 21
       -0.13033
 31
        1.44707
 12
       -0.90866
 22
       -0.47469
 32
        1.45308
 13
       -0.90866
 23
       -0.47469
 33
        1.45308
999
Fixed Shading:SHADING GROUP 1 FACE 313
  0
3DFACE
  8
Fixed Shading
 62
  9
 10
       -1.40866
 20
       -0.47469
 30
        1.45308
 11
       -1.60866
 21
       -0.12833
 31
        1.44703
 12
       -1.60866
 22
       -0.13531
 32
        1.04709
 13
       -1.40866
 23
       -0.48167
 33
        1.05314
999
Fixed Shading:Mir-SHADING GROUP 1 FACE 313
  0
3DFACE
  8
Fixed Shading
 62
  9
 10
       -1.40866
 20
       -0.48167
 30
        1.05314
 11
       -1.60866
 21
       -0.13531
 31
        1.04709
 12
       -1.60866
 22
       -0.12833
 32
        1.44703
 13
       -1.40866
 23
       -0.47469
 33
        1.45308
999
Fixed Shading:SHADING GROUP 1 FACE 314
  0
3DFACE
  8
Fixed Shading
 62
  9
 10
       -1.41212
 20
       -0.48367
 30
        1.05318
 11
       -1.61212
 21
       -0.13731
 31
        1.04713
 12
       -1.61212
 22
       -0.13033
 32
        1.44707
 13
       -1.41212
 23
       -0.47669
 33
        1.45311
999
Fixed Shading:Mir-SHADING GROUP 1 FACE 314
  0
3DFACE
  8
Fixed Shading
 62
  9
 10
       -1.41212
 20
       -0.47669
 30
        1.45311
 11
       -1.61212
 21
       -0.13033
 31
        1.44707
 12
       -1.61212
 22
       -0.13731
 32
        1.04713
 13
       -1.41212
 23
       -0.48367
 33
        1.05318
999
Fixed Shading:SHADING GROUP 1 FACE 315
  0
3DFACE
  8
Fixed Shading
 62
  9
 10
       -1.40866
 20
       -0.48167
 30
        1.05314
 11
       -1.41212
 21
       -0.47669
 31
        1.45311
 12
       -1.40866
 22
       -0.47469
 32
        1.45308
 13
       -1.40866
 23
       -0.47469
 33
        1.45308
999
Fixed Shading:Mir-SHADING GROUP 1 FACE 315
  0
3DFACE
  8
Fixed Shading
 62
  9
 10
       -1.40866
 20
       -0.47469
 30
        1.45308
 11
       -1.41212
 21
       -0.47669
 31
        1.45311
 12
       -1.40866
 22
       -0.48167
 32
        1.05314
 13
       -1.40866
 23
       -0.48167
 33
        1.05314
999
Fixed Shading:SHADING GROUP 1 FACE 316
  0
3DFACE
  8
Fixed Shading
 62
  9
 10
       -1.60866
 20
       -0.13531
 30
        1.04709
 11
       -1.41212
 21
       -0.48367
 31
        1.05318
 12
       -1.40866
 22
       -0.48167
 32
        1.05314
 13
       -1.40866
 23
       -0.48167
 33
        1.05314
999
Fixed Shading:Mir-SHADING GROUP 1 FACE 316
  0
3DFACE
  8
Fixed Shading
 62
  9
 10
       -1.40866
 20
       -0.48167
 30
        1.05314
 11
       -1.41212
 21
       -0.48367
 31
        1.05318
 12
       -1.60866
 22
       -0.13531
 32
        1.04709
 13
       -1.60866
 23
       -0.13531
 33
        1.04709
999
Fixed Shading:SHADING GROUP 1 FACE 317
  0
3DFACE
  8
Fixed Shading
 62
  9
 10
       -1.60866
 20
       -0.12833
 30
        1.44703
 11
       -1.61212
 21
       -0.13731
 31
        1.04713
 12
       -1.60866
 22
       -0.13531
 32
        1.04709
 13
       -1.60866
 23
       -0.13531
 33
        1.04709
999
Fixed Shading:Mir-SHADING GROUP 1 FACE 317
  0
3DFACE
  8
Fixed Shading
 62
  9
 10
       -1.60866
 20
       -0.13531
 30
        1.04709
 11
       -1.61212
 21
       -0.13731
 31
        1.04713
 12
       -1.60866
 22
       -0.12833
 32
        1.44703
 13
       -1.60866
 23
       -0.12833
 33
        1.44703
999
Fixed Shading:SHADING GROUP 1 FACE 318
  0
3DFACE
  8
Fixed Shading
 62
  9
 10
       -1.40866
 20
       -0.47469
 30
        1.45308
 11
       -1.61212
 21
       -0.13033
 31
        1.44707
 12
       -1.60866
 22
       -0.12833
 32
        1.44703
 13
       -1.60866
 23
       -0.12833
 33
        1.44703
999
Fixed Shading:Mir-SHADING GROUP 1 FACE 318
  0
3DFACE
  8
Fixed Shading
 62
  9
 10
       -1.60866
 20
       -0.12833
 30
        1.44703
 11
       -1.61212
 21
       -0.13033
 31
        1.44707
 12
       -1.40866
 22
       -0.47469
 32
        1.45308
 13
       -1.40866
 23
       -0.47469
 33
        1.45308
999
Fixed Shading:SHADING GROUP 1 FACE 319
  0
3DFACE
  8
Fixed Shading
 62
  9
 10
       -1.90866
 20
       -0.47469
 30
        1.45308
 11
       -2.10866
 21
       -0.12833
 31
        1.44703
 12
       -2.10866
 22
       -0.13531
 32
        1.04709
 13
       -1.90866
 23
       -0.48167
 33
        1.05314
999
Fixed Shading:Mir-SHADING GROUP 1 FACE 319
  0
3DFACE
  8
Fixed Shading
 62
  9
 10
       -1.90866
 20
       -0.48167
 30
        1.05314
 11
       -2.10866
 21
       -0.13531
 31
        1.04709
 12
       -2.10866
 22
       -0.12833
 32
        1.44703
 13
       -1.90866
 23
       -0.47469
 33
        1.45308
999
Fixed Shading:SHADING GROUP 1 FACE 320
  0
3DFACE
  8
Fixed Shading
 62
  9
 10
       -1.91212
 20
       -0.48367
 30
        1.05318
 11
       -2.11212
 21
       -0.13731
 31
        1.04713
 12
       -2.11212
 22
       -0.13033
 32
        1.44707
 13
       -1.91212
 23
       -0.47669
 33
        1.45311
999
Fixed Shading:Mir-SHADING GROUP 1 FACE 320
  0
3DFACE
  8
Fixed Shading
 62
  9
 10
       -1.91212
 20
       -0.47669
 30
        1.45311
 11
       -2.11212
 21
       -0.13033
 31
        1.44707
 12
       -2.11212
 22
       -0.13731
 32
        1.04713
 13
       -1.91212
 23
       -0.48367
 33
        1.05318
999
Fixed Shading:SHADING GROUP 1 FACE 321
  0
3DFACE
  8
Fixed Shading
 62
  9
 10
       -1.90866
 20
       -0.48167
 30
        1.05314
 11
       -1.91212
 21
       -0.47669
 31
        1.45311
 12
       -1.90866
 22
       -0.47469
 32
        1.45308
 13
       -1.90866
 23
       -0.47469
 33
        1.45308
999
Fixed Shading:Mir-SHADING GROUP 1 FACE 321
  0
3DFACE
  8
Fixed Shading
 62
  9
 10
       -1.90866
 20
       -0.47469
 30
        1.45308
 11
       -1.91212
 21
       -0.47669
 31
        1.45311
 12
       -1.90866
 22
       -0.48167
 32
        1.05314
 13
       -1.90866
 23
       -0.48167
 33
        1.05314
999
Fixed Shading:SHADING GROUP 1 FACE 322
  0
3DFACE
  8
Fixed Shading
 62
  9
 10
       -2.10866
 20
       -0.13531
 30
        1.04709
 11
       -1.91212
 21
       -0.48367
 31
        1.05318
 12
       -1.90866
 22
       -0.48167
 32
        1.05314
 13
       -1.90866
 23
       -0.48167
 33
        1.05314
999
Fixed Shading:Mir-SHADING GROUP 1 FACE 322
  0
3DFACE
  8
Fixed Shading
 62
  9
 10
       -1.90866
 20
       -0.48167
 30
        1.05314
 11
       -1.91212
 21
       -0.48367
 31
        1.05318
 12
       -2.10866
 22
       -0.13531
 32
        1.04709
 13
       -2.10866
 23
       -0.13531
 33
        1.04709
999
Fixed Shading:SHADING GROUP 1 FACE 323
  0
3DFACE
  8
Fixed Shading
 62
  9
 10
       -2.10866
 20
       -0.12833
 30
        1.44703
 11
       -2.11212
 21
       -0.13731
 31
        1.04713
 12
       -2.10866
 22
       -0.13531
 32
        1.04709
 13
       -2.10866
 23
       -0.13531
 33
        1.04709
999
Fixed Shading:Mir-SHADING GROUP 1 FACE 323
  0
3DFACE
  8
Fixed Shading
 62
  9
 10
       -2.10866
 20
       -0.13531
 30
        1.04709
 11
       -2.11212
 21
       -0.13731
 31
        1.04713
 12
       -2.10866
 22
       -0.12833
 32
        1.44703
 13
       -2.10866
 23
       -0.12833
 33
        1.44703
999
Fixed Shading:SHADING GROUP 1 FACE 324
  0
3DFACE
  8
Fixed Shading
 62
  9
 10
       -1.90866
 20
       -0.47469
 30
        1.45308
 11
       -2.11212
 21
       -0.13033
 31
        1.44707
 12
       -2.10866
 22
       -0.12833
 32
        1.44703
 13
       -2.10866
 23
       -0.12833
 33
        1.44703
999
Fixed Shading:Mir-SHADING GROUP 1 FACE 324
  0
3DFACE
  8
Fixed Shading
 62
  9
 10
       -2.10866
 20
       -0.12833
 30
        1.44703
 11
       -2.11212
 21
       -0.13033
 31
        1.44707
 12
       -1.90866
 22
       -0.47469
 32
        1.45308
 13
       -1.90866
 23
       -0.47469
 33
        1.45308
999
ZONE1:ZONE1_FACE_1
  0
3DFACE
  8
ZONE1
 62
 43
 10
        2.45000
 20
        7.00000
 30
        1.55000
 11
        2.45000
 21
        7.00000
 31
       -1.55000
 12
       -2.45000
 22
        7.00000
 32
       -1.55000
 13
       -2.45000
 23
        7.00000
 33
        1.55000
999
ZONE1:ZONE1_FACE_2
  0
3DFACE
  8
ZONE1
 62
 43
 10
        2.45000
 20
        0.00000
 30
        1.55000
 11
        2.45000
 21
        0.00000
 31
       -1.55000
 12
        2.45000
 22
        7.00000
 32
       -1.55000
 13
        2.45000
 23
        7.00000
 33
        1.55000
999
ZONE1:ZONE1_FACE_3
  0
3DFACE
  8
ZONE1
 62
 43
 10
       -2.45000
 20
        7.00000
 30
        1.55000
 11
       -2.45000
 21
        7.00000
 31
       -1.55000
 12
       -2.45000
 22
        0.00000
 32
       -1.55000
 13
       -2.45000
 23
        0.00000
 33
        1.55000
999
ZONE1:ZONE1_FACE_6
  0
3DFACE
  8
ZONE1
 62
 43
 10
       -2.45000
 20
        0.00000
 30
        1.55000
 11
       -2.45000
 21
        0.00000
 31
       -1.55000
 12
        2.45000
 22
        0.00000
 32
       -1.55000
 13
        2.45000
 23
        0.00000
 33
        1.55000
999
ZONE1:ZONE1_FACE_6_WINDOW_1
  0
3DFACE
  8
ZONE1
 62
143
 10
       -2.25000
 20
        0.00000
 30
        1.50000
 11
       -2.25000
 21
        0.00000
 31
       -1.50000
 12
        2.25000
 22
        0.00000
 32
       -1.50000
 13
        2.25000
 23
        0.00000
 33
        1.50000
999
ZONE1:ZONE1_FACE_5
  0
3DFACE
  8
ZONE1
 62
  8
 10
        2.45000
 20
        7.00000
 30
       -1.55000
 11
        2.45000
 21
        0.00000
 31
       -1.55000
 12
       -2.45000
 22
        0.00000
 32
       -1.55000
 13
       -2.45000
 23
        7.00000
 33
       -1.55000
999
ZONE1:ZONE1_FACE_4
  0
3DFACE
  8
ZONE1
 62
 15
 10
       -2.45000
 20
        7.00000
 30
        1.55000
 11
       -2.45000
 21
        0.00000
 31
        1.55000
 12
        2.45000
 22
        0.00000
 32
        1.55000
 13
        2.45000
 23
        7.00000
 33
        1.55000
999
ZONE1:DayRefPt:1
  0
CIRCLE
  8
ZONE1
 62
 10
 10
        0.00000
 20
        3.50000
 30
       -0.75000
 40
        0.20000
  0
ENDSEC
  0
EOF
