  0
SECTION
  2
ENTITIES
999
DXF created from EnergyPlus
999
Program Version,EnergyPlus-Windows-OMP-32 7.2.0.006, YMD=2014.05.14 09:00
999
Polygon Action,ThickPolyline
999
Color Scheme,Default
999
Text - True North
  0
TEXT
  8
1
  6
Continuous
 62
  3
 10
      -13.45000
 20
        2.54868
 30
        0.10000
 40
 .25
  1
True North
 41
 0.0
  7
MONOTXT
210
0.0
220
0.0
230
1.0
999
Text - Building Title
  0
TEXT
  8
1
  6
Continuous
 62
  3
 10
      -16.45000
 20
       -1.45132
 30
        0.10000
 40
 .4
  1
Building - BUILDING
 41
 0.0
  7
MONOTXT
210
0.0
220
0.0
230
1.0
999
North Arrow Stem
  0
3DFACE
  8
1
 62
  3
 10
      -12.45000
 20
        2.54868
 30
        0.10000
 11
      -12.45000
 21
        2.54868
 31
        0.00000
 12
      -12.45000
 22
       -0.45132
 32
        0.00000
 13
      -12.45000
 23
       -0.45132
 33
        0.10000
999
North Arrow Head 1
  0
3DFACE
  8
1
 62
  3
 10
      -12.45000
 20
        2.54868
 30
        0.10000
 11
      -12.45000
 21
        2.54868
 31
        0.00000
 12
      -12.95000
 22
        1.68265
 32
        0.00000
 13
      -12.95000
 23
        1.68265
 33
        0.10000
999
North Arrow Head 2
  0
3DFACE
  8
1
 62
  3
 10
      -12.45000
 20
        2.54868
 30
        0.10000
 11
      -12.45000
 21
        2.54868
 31
        0.00000
 12
      -11.95000
 22
        1.68265
 32
        0.00000
 13
      -11.95000
 23
        1.68265
 33
        0.10000
999
North Arrow Side 1
  0
3DFACE
  8
1
 62
  3
 10
      -12.95000
 20
        4.04868
 30
        0.10000
 11
      -12.95000
 21
        4.04868
 31
        0.00000
 12
      -12.95000
 22
        3.04868
 32
        0.00000
 13
      -12.95000
 23
        3.04868
 33
        0.10000
999
North Arrow Side 2
  0
3DFACE
  8
1
 62
  3
 10
      -12.95000
 20
        4.04868
 30
        0.10000
 11
      -12.95000
 21
        4.04868
 31
        0.00000
 12
      -11.95000
 22
        3.04868
 32
        0.00000
 13
      -11.95000
 23
        3.04868
 33
        0.10000
999
North Arrow Side 3
  0
3DFACE
  8
1
 62
  3
 10
      -11.95000
 20
        4.04868
 30
        0.10000
 11
      -11.95000
 21
        4.04868
 31
        0.00000
 12
      -11.95000
 22
        3.04868
 32
        0.00000
 13
      -11.95000
 23
        3.04868
 33
        0.10000
999
Zone Names
999
Zone=1:ZONE1
999
Fixed Shading:SHADING GROUP 1 FACE 1
  0
3DFACE
  8
Fixed Shading
 62
  9
 10
        2.20000
 20
       -0.30651
 30
       -1.04986
 11
        1.80000
 21
       -0.30651
 31
       -1.04986
 12
        1.80000
 22
       -0.31349
 32
       -1.44980
 13
        2.20000
 23
       -0.31349
 33
       -1.44980
999
Fixed Shading:Mir-SHADING GROUP 1 FACE 1
  0
3DFACE
  8
Fixed Shading
 62
  9
 10
        2.20000
 20
       -0.31349
 30
       -1.44980
 11
        1.80000
 21
       -0.31349
 31
       -1.44980
 12
        1.80000
 22
       -0.30651
 32
       -1.04986
 13
        2.20000
 23
       -0.30651
 33
       -1.04986
999
Fixed Shading:SHADING GROUP 1 FACE 2
  0
3DFACE
  8
Fixed Shading
 62
  9
 10
        2.20000
 20
       -0.31749
 30
       -1.44973
 11
        1.80000
 21
       -0.31749
 31
       -1.44973
 12
        1.80000
 22
       -0.31051
 32
       -1.04979
 13
        2.20000
 23
       -0.31051
 33
       -1.04979
999
Fixed Shading:Mir-SHADING GROUP 1 FACE 2
  0
3DFACE
  8
Fixed Shading
 62
  9
 10
        2.20000
 20
       -0.31051
 30
       -1.04979
 11
        1.80000
 21
       -0.31051
 31
       -1.04979
 12
        1.80000
 22
       -0.31749
 32
       -1.44973
 13
        2.20000
 23
       -0.31749
 33
       -1.44973
999
Fixed Shading:SHADING GROUP 1 FACE 3
  0
3DFACE
  8
Fixed Shading
 62
  9
 10
        2.20000
 20
       -0.31349
 30
       -1.44980
 11
        2.20000
 21
       -0.31051
 31
       -1.04979
 12
        2.20000
 22
       -0.30651
 32
       -1.04986
 13
        2.20000
 23
       -0.30651
 33
       -1.04986
999
Fixed Shading:Mir-SHADING GROUP 1 FACE 3
  0
3DFACE
  8
Fixed Shading
 62
  9
 10
        2.20000
 20
       -0.30651
 30
       -1.04986
 11
        2.20000
 21
       -0.31051
 31
       -1.04979
 12
        2.20000
 22
       -0.31349
 32
       -1.44980
 13
        2.20000
 23
       -0.31349
 33
       -1.44980
999
Fixed Shading:SHADING GROUP 1 FACE 4
  0
3DFACE
  8
Fixed Shading
 62
  9
 10
        1.80000
 20
       -0.31349
 30
       -1.44980
 11
        2.20000
 21
       -0.31749
 31
       -1.44973
 12
        2.20000
 22
       -0.31349
 32
       -1.44980
 13
        2.20000
 23
       -0.31349
 33
       -1.44980
999
Fixed Shading:Mir-SHADING GROUP 1 FACE 4
  0
3DFACE
  8
Fixed Shading
 62
  9
 10
        2.20000
 20
       -0.31349
 30
       -1.44980
 11
        2.20000
 21
       -0.31749
 31
       -1.44973
 12
        1.80000
 22
       -0.31349
 32
       -1.44980
 13
        1.80000
 23
       -0.31349
 33
       -1.44980
999
Fixed Shading:SHADING GROUP 1 FACE 5
  0
3DFACE
  8
Fixed Shading
 62
  9
 10
        1.80000
 20
       -0.30651
 30
       -1.04986
 11
        1.80000
 21
       -0.31749
 31
       -1.44973
 12
        1.80000
 22
       -0.31349
 32
       -1.44980
 13
        1.80000
 23
       -0.31349
 33
       -1.44980
999
Fixed Shading:Mir-SHADING GROUP 1 FACE 5
  0
3DFACE
  8
Fixed Shading
 62
  9
 10
        1.80000
 20
       -0.31349
 30
       -1.44980
 11
        1.80000
 21
       -0.31749
 31
       -1.44973
 12
        1.80000
 22
       -0.30651
 32
       -1.04986
 13
        1.80000
 23
       -0.30651
 33
       -1.04986
999
Fixed Shading:SHADING GROUP 1 FACE 6
  0
3DFACE
  8
Fixed Shading
 62
  9
 10
        2.20000
 20
       -0.30651
 30
       -1.04986
 11
        1.80000
 21
       -0.31051
 31
       -1.04979
 12
        1.80000
 22
       -0.30651
 32
       -1.04986
 13
        1.80000
 23
       -0.30651
 33
       -1.04986
999
Fixed Shading:Mir-SHADING GROUP 1 FACE 6
  0
3DFACE
  8
Fixed Shading
 62
  9
 10
        1.80000
 20
       -0.30651
 30
       -1.04986
 11
        1.80000
 21
       -0.31051
 31
       -1.04979
 12
        2.20000
 22
       -0.30651
 32
       -1.04986
 13
        2.20000
 23
       -0.30651
 33
       -1.04986
999
Fixed Shading:SHADING GROUP 1 FACE 7
  0
3DFACE
  8
Fixed Shading
 62
  9
 10
        1.70000
 20
       -0.30651
 30
       -1.04986
 11
        1.30000
 21
       -0.30651
 31
       -1.04986
 12
        1.30000
 22
       -0.31349
 32
       -1.44980
 13
        1.70000
 23
       -0.31349
 33
       -1.44980
999
Fixed Shading:Mir-SHADING GROUP 1 FACE 7
  0
3DFACE
  8
Fixed Shading
 62
  9
 10
        1.70000
 20
       -0.31349
 30
       -1.44980
 11
        1.30000
 21
       -0.31349
 31
       -1.44980
 12
        1.30000
 22
       -0.30651
 32
       -1.04986
 13
        1.70000
 23
       -0.30651
 33
       -1.04986
999
Fixed Shading:SHADING GROUP 1 FACE 8
  0
3DFACE
  8
Fixed Shading
 62
  9
 10
        1.70000
 20
       -0.31749
 30
       -1.44973
 11
        1.30000
 21
       -0.31749
 31
       -1.44973
 12
        1.30000
 22
       -0.31051
 32
       -1.04979
 13
        1.70000
 23
       -0.31051
 33
       -1.04979
999
Fixed Shading:Mir-SHADING GROUP 1 FACE 8
  0
3DFACE
  8
Fixed Shading
 62
  9
 10
        1.70000
 20
       -0.31051
 30
       -1.04979
 11
        1.30000
 21
       -0.31051
 31
       -1.04979
 12
        1.30000
 22
       -0.31749
 32
       -1.44973
 13
        1.70000
 23
       -0.31749
 33
       -1.44973
999
Fixed Shading:SHADING GROUP 1 FACE 9
  0
3DFACE
  8
Fixed Shading
 62
  9
 10
        1.70000
 20
       -0.31349
 30
       -1.44980
 11
        1.70000
 21
       -0.31051
 31
       -1.04979
 12
        1.70000
 22
       -0.30651
 32
       -1.04986
 13
        1.70000
 23
       -0.30651
 33
       -1.04986
999
Fixed Shading:Mir-SHADING GROUP 1 FACE 9
  0
3DFACE
  8
Fixed Shading
 62
  9
 10
        1.70000
 20
       -0.30651
 30
       -1.04986
 11
        1.70000
 21
       -0.31051
 31
       -1.04979
 12
        1.70000
 22
       -0.31349
 32
       -1.44980
 13
        1.70000
 23
       -0.31349
 33
       -1.44980
999
Fixed Shading:SHADING GROUP 1 FACE 10
  0
3DFACE
  8
Fixed Shading
 62
  9
 10
        1.30000
 20
       -0.31349
 30
       -1.44980
 11
        1.70000
 21
       -0.31749
 31
       -1.44973
 12
        1.70000
 22
       -0.31349
 32
       -1.44980
 13
        1.70000
 23
       -0.31349
 33
       -1.44980
999
Fixed Shading:Mir-SHADING GROUP 1 FACE 10
  0
3DFACE
  8
Fixed Shading
 62
  9
 10
        1.70000
 20
       -0.31349
 30
       -1.44980
 11
        1.70000
 21
       -0.31749
 31
       -1.44973
 12
        1.30000
 22
       -0.31349
 32
       -1.44980
 13
        1.30000
 23
       -0.31349
 33
       -1.44980
999
Fixed Shading:SHADING GROUP 1 FACE 11
  0
3DFACE
  8
Fixed Shading
 62
  9
 10
        1.30000
 20
       -0.30651
 30
       -1.04986
 11
        1.30000
 21
       -0.31749
 31
       -1.44973
 12
        1.30000
 22
       -0.31349
 32
       -1.44980
 13
        1.30000
 23
       -0.31349
 33
       -1.44980
999
Fixed Shading:Mir-SHADING GROUP 1 FACE 11
  0
3DFACE
  8
Fixed Shading
 62
  9
 10
        1.30000
 20
       -0.31349
 30
       -1.44980
 11
        1.30000
 21
       -0.31749
 31
       -1.44973
 12
        1.30000
 22
       -0.30651
 32
       -1.04986
 13
        1.30000
 23
       -0.30651
 33
       -1.04986
999
Fixed Shading:SHADING GROUP 1 FACE 12
  0
3DFACE
  8
Fixed Shading
 62
  9
 10
        1.70000
 20
       -0.30651
 30
       -1.04986
 11
        1.30000
 21
       -0.31051
 31
       -1.04979
 12
        1.30000
 22
       -0.30651
 32
       -1.04986
 13
        1.30000
 23
       -0.30651
 33
       -1.04986
999
Fixed Shading:Mir-SHADING GROUP 1 FACE 12
  0
3DFACE
  8
Fixed Shading
 62
  9
 10
        1.30000
 20
       -0.30651
 30
       -1.04986
 11
        1.30000
 21
       -0.31051
 31
       -1.04979
 12
        1.70000
 22
       -0.30651
 32
       -1.04986
 13
        1.70000
 23
       -0.30651
 33
       -1.04986
999
Fixed Shading:SHADING GROUP 1 FACE 13
  0
3DFACE
  8
Fixed Shading
 62
  9
 10
        1.20000
 20
       -0.30651
 30
       -1.04986
 11
        0.80000
 21
       -0.30651
 31
       -1.04986
 12
        0.80000
 22
       -0.31349
 32
       -1.44980
 13
        1.20000
 23
       -0.31349
 33
       -1.44980
999
Fixed Shading:Mir-SHADING GROUP 1 FACE 13
  0
3DFACE
  8
Fixed Shading
 62
  9
 10
        1.20000
 20
       -0.31349
 30
       -1.44980
 11
        0.80000
 21
       -0.31349
 31
       -1.44980
 12
        0.80000
 22
       -0.30651
 32
       -1.04986
 13
        1.20000
 23
       -0.30651
 33
       -1.04986
999
Fixed Shading:SHADING GROUP 1 FACE 14
  0
3DFACE
  8
Fixed Shading
 62
  9
 10
        1.20000
 20
       -0.31749
 30
       -1.44973
 11
        0.80000
 21
       -0.31749
 31
       -1.44973
 12
        0.80000
 22
       -0.31051
 32
       -1.04979
 13
        1.20000
 23
       -0.31051
 33
       -1.04979
999
Fixed Shading:Mir-SHADING GROUP 1 FACE 14
  0
3DFACE
  8
Fixed Shading
 62
  9
 10
        1.20000
 20
       -0.31051
 30
       -1.04979
 11
        0.80000
 21
       -0.31051
 31
       -1.04979
 12
        0.80000
 22
       -0.31749
 32
       -1.44973
 13
        1.20000
 23
       -0.31749
 33
       -1.44973
999
Fixed Shading:SHADING GROUP 1 FACE 15
  0
3DFACE
  8
Fixed Shading
 62
  9
 10
        1.20000
 20
       -0.31349
 30
       -1.44980
 11
        1.20000
 21
       -0.31051
 31
       -1.04979
 12
        1.20000
 22
       -0.30651
 32
       -1.04986
 13
        1.20000
 23
       -0.30651
 33
       -1.04986
999
Fixed Shading:Mir-SHADING GROUP 1 FACE 15
  0
3DFACE
  8
Fixed Shading
 62
  9
 10
        1.20000
 20
       -0.30651
 30
       -1.04986
 11
        1.20000
 21
       -0.31051
 31
       -1.04979
 12
        1.20000
 22
       -0.31349
 32
       -1.44980
 13
        1.20000
 23
       -0.31349
 33
       -1.44980
999
Fixed Shading:SHADING GROUP 1 FACE 16
  0
3DFACE
  8
Fixed Shading
 62
  9
 10
        0.80000
 20
       -0.31349
 30
       -1.44980
 11
        1.20000
 21
       -0.31749
 31
       -1.44973
 12
        1.20000
 22
       -0.31349
 32
       -1.44980
 13
        1.20000
 23
       -0.31349
 33
       -1.44980
999
Fixed Shading:Mir-SHADING GROUP 1 FACE 16
  0
3DFACE
  8
Fixed Shading
 62
  9
 10
        1.20000
 20
       -0.31349
 30
       -1.44980
 11
        1.20000
 21
       -0.31749
 31
       -1.44973
 12
        0.80000
 22
       -0.31349
 32
       -1.44980
 13
        0.80000
 23
       -0.31349
 33
       -1.44980
999
Fixed Shading:SHADING GROUP 1 FACE 17
  0
3DFACE
  8
Fixed Shading
 62
  9
 10
        0.80000
 20
       -0.30651
 30
       -1.04986
 11
        0.80000
 21
       -0.31749
 31
       -1.44973
 12
        0.80000
 22
       -0.31349
 32
       -1.44980
 13
        0.80000
 23
       -0.31349
 33
       -1.44980
999
Fixed Shading:Mir-SHADING GROUP 1 FACE 17
  0
3DFACE
  8
Fixed Shading
 62
  9
 10
        0.80000
 20
       -0.31349
 30
       -1.44980
 11
        0.80000
 21
       -0.31749
 31
       -1.44973
 12
        0.80000
 22
       -0.30651
 32
       -1.04986
 13
        0.80000
 23
       -0.30651
 33
       -1.04986
999
Fixed Shading:SHADING GROUP 1 FACE 18
  0
3DFACE
  8
Fixed Shading
 62
  9
 10
        1.20000
 20
       -0.30651
 30
       -1.04986
 11
        0.80000
 21
       -0.31051
 31
       -1.04979
 12
        0.80000
 22
       -0.30651
 32
       -1.04986
 13
        0.80000
 23
       -0.30651
 33
       -1.04986
999
Fixed Shading:Mir-SHADING GROUP 1 FACE 18
  0
3DFACE
  8
Fixed Shading
 62
  9
 10
        0.80000
 20
       -0.30651
 30
       -1.04986
 11
        0.80000
 21
       -0.31051
 31
       -1.04979
 12
        1.20000
 22
       -0.30651
 32
       -1.04986
 13
        1.20000
 23
       -0.30651
 33
       -1.04986
999
Fixed Shading:SHADING GROUP 1 FACE 19
  0
3DFACE
  8
Fixed Shading
 62
  9
 10
        0.70000
 20
       -0.30651
 30
       -1.04986
 11
        0.30000
 21
       -0.30651
 31
       -1.04986
 12
        0.30000
 22
       -0.31349
 32
       -1.44980
 13
        0.70000
 23
       -0.31349
 33
       -1.44980
999
Fixed Shading:Mir-SHADING GROUP 1 FACE 19
  0
3DFACE
  8
Fixed Shading
 62
  9
 10
        0.70000
 20
       -0.31349
 30
       -1.44980
 11
        0.30000
 21
       -0.31349
 31
       -1.44980
 12
        0.30000
 22
       -0.30651
 32
       -1.04986
 13
        0.70000
 23
       -0.30651
 33
       -1.04986
999
Fixed Shading:SHADING GROUP 1 FACE 20
  0
3DFACE
  8
Fixed Shading
 62
  9
 10
        0.70000
 20
       -0.31749
 30
       -1.44973
 11
        0.30000
 21
       -0.31749
 31
       -1.44973
 12
        0.30000
 22
       -0.31051
 32
       -1.04979
 13
        0.70000
 23
       -0.31051
 33
       -1.04979
999
Fixed Shading:Mir-SHADING GROUP 1 FACE 20
  0
3DFACE
  8
Fixed Shading
 62
  9
 10
        0.70000
 20
       -0.31051
 30
       -1.04979
 11
        0.30000
 21
       -0.31051
 31
       -1.04979
 12
        0.30000
 22
       -0.31749
 32
       -1.44973
 13
        0.70000
 23
       -0.31749
 33
       -1.44973
999
Fixed Shading:SHADING GROUP 1 FACE 21
  0
3DFACE
  8
Fixed Shading
 62
  9
 10
        0.70000
 20
       -0.31349
 30
       -1.44980
 11
        0.70000
 21
       -0.31051
 31
       -1.04979
 12
        0.70000
 22
       -0.30651
 32
       -1.04986
 13
        0.70000
 23
       -0.30651
 33
       -1.04986
999
Fixed Shading:Mir-SHADING GROUP 1 FACE 21
  0
3DFACE
  8
Fixed Shading
 62
  9
 10
        0.70000
 20
       -0.30651
 30
       -1.04986
 11
        0.70000
 21
       -0.31051
 31
       -1.04979
 12
        0.70000
 22
       -0.31349
 32
       -1.44980
 13
        0.70000
 23
       -0.31349
 33
       -1.44980
999
Fixed Shading:SHADING GROUP 1 FACE 22
  0
3DFACE
  8
Fixed Shading
 62
  9
 10
        0.30000
 20
       -0.31349
 30
       -1.44980
 11
        0.70000
 21
       -0.31749
 31
       -1.44973
 12
        0.70000
 22
       -0.31349
 32
       -1.44980
 13
        0.70000
 23
       -0.31349
 33
       -1.44980
999
Fixed Shading:Mir-SHADING GROUP 1 FACE 22
  0
3DFACE
  8
Fixed Shading
 62
  9
 10
        0.70000
 20
       -0.31349
 30
       -1.44980
 11
        0.70000
 21
       -0.31749
 31
       -1.44973
 12
        0.30000
 22
       -0.31349
 32
       -1.44980
 13
        0.30000
 23
       -0.31349
 33
       -1.44980
999
Fixed Shading:SHADING GROUP 1 FACE 23
  0
3DFACE
  8
Fixed Shading
 62
  9
 10
        0.30000
 20
       -0.30651
 30
       -1.04986
 11
        0.30000
 21
       -0.31749
 31
       -1.44973
 12
        0.30000
 22
       -0.31349
 32
       -1.44980
 13
        0.30000
 23
       -0.31349
 33
       -1.44980
999
Fixed Shading:Mir-SHADING GROUP 1 FACE 23
  0
3DFACE
  8
Fixed Shading
 62
  9
 10
        0.30000
 20
       -0.31349
 30
       -1.44980
 11
        0.30000
 21
       -0.31749
 31
       -1.44973
 12
        0.30000
 22
       -0.30651
 32
       -1.04986
 13
        0.30000
 23
       -0.30651
 33
       -1.04986
999
Fixed Shading:SHADING GROUP 1 FACE 24
  0
3DFACE
  8
Fixed Shading
 62
  9
 10
        0.70000
 20
       -0.30651
 30
       -1.04986
 11
        0.30000
 21
       -0.31051
 31
       -1.04979
 12
        0.30000
 22
       -0.30651
 32
       -1.04986
 13
        0.30000
 23
       -0.30651
 33
       -1.04986
999
Fixed Shading:Mir-SHADING GROUP 1 FACE 24
  0
3DFACE
  8
Fixed Shading
 62
  9
 10
        0.30000
 20
       -0.30651
 30
       -1.04986
 11
        0.30000
 21
       -0.31051
 31
       -1.04979
 12
        0.70000
 22
       -0.30651
 32
       -1.04986
 13
        0.70000
 23
       -0.30651
 33
       -1.04986
999
Fixed Shading:SHADING GROUP 1 FACE 25
  0
3DFACE
  8
Fixed Shading
 62
  9
 10
        0.20000
 20
       -0.30651
 30
       -1.04986
 11
       -0.20000
 21
       -0.30651
 31
       -1.04986
 12
       -0.20000
 22
       -0.31349
 32
       -1.44980
 13
        0.20000
 23
       -0.31349
 33
       -1.44980
999
Fixed Shading:Mir-SHADING GROUP 1 FACE 25
  0
3DFACE
  8
Fixed Shading
 62
  9
 10
        0.20000
 20
       -0.31349
 30
       -1.44980
 11
       -0.20000
 21
       -0.31349
 31
       -1.44980
 12
       -0.20000
 22
       -0.30651
 32
       -1.04986
 13
        0.20000
 23
       -0.30651
 33
       -1.04986
999
Fixed Shading:SHADING GROUP 1 FACE 26
  0
3DFACE
  8
Fixed Shading
 62
  9
 10
        0.20000
 20
       -0.31749
 30
       -1.44973
 11
       -0.20000
 21
       -0.31749
 31
       -1.44973
 12
       -0.20000
 22
       -0.31051
 32
       -1.04979
 13
        0.20000
 23
       -0.31051
 33
       -1.04979
999
Fixed Shading:Mir-SHADING GROUP 1 FACE 26
  0
3DFACE
  8
Fixed Shading
 62
  9
 10
        0.20000
 20
       -0.31051
 30
       -1.04979
 11
       -0.20000
 21
       -0.31051
 31
       -1.04979
 12
       -0.20000
 22
       -0.31749
 32
       -1.44973
 13
        0.20000
 23
       -0.31749
 33
       -1.44973
999
Fixed Shading:SHADING GROUP 1 FACE 27
  0
3DFACE
  8
Fixed Shading
 62
  9
 10
        0.20000
 20
       -0.31349
 30
       -1.44980
 11
        0.20000
 21
       -0.31051
 31
       -1.04979
 12
        0.20000
 22
       -0.30651
 32
       -1.04986
 13
        0.20000
 23
       -0.30651
 33
       -1.04986
999
Fixed Shading:Mir-SHADING GROUP 1 FACE 27
  0
3DFACE
  8
Fixed Shading
 62
  9
 10
        0.20000
 20
       -0.30651
 30
       -1.04986
 11
        0.20000
 21
       -0.31051
 31
       -1.04979
 12
        0.20000
 22
       -0.31349
 32
       -1.44980
 13
        0.20000
 23
       -0.31349
 33
       -1.44980
999
Fixed Shading:SHADING GROUP 1 FACE 28
  0
3DFACE
  8
Fixed Shading
 62
  9
 10
       -0.20000
 20
       -0.31349
 30
       -1.44980
 11
        0.20000
 21
       -0.31749
 31
       -1.44973
 12
        0.20000
 22
       -0.31349
 32
       -1.44980
 13
        0.20000
 23
       -0.31349
 33
       -1.44980
999
Fixed Shading:Mir-SHADING GROUP 1 FACE 28
  0
3DFACE
  8
Fixed Shading
 62
  9
 10
        0.20000
 20
       -0.31349
 30
       -1.44980
 11
        0.20000
 21
       -0.31749
 31
       -1.44973
 12
       -0.20000
 22
       -0.31349
 32
       -1.44980
 13
       -0.20000
 23
       -0.31349
 33
       -1.44980
999
Fixed Shading:SHADING GROUP 1 FACE 29
  0
3DFACE
  8
Fixed Shading
 62
  9
 10
       -0.20000
 20
       -0.30651
 30
       -1.04986
 11
       -0.20000
 21
       -0.31749
 31
       -1.44973
 12
       -0.20000
 22
       -0.31349
 32
       -1.44980
 13
       -0.20000
 23
       -0.31349
 33
       -1.44980
999
Fixed Shading:Mir-SHADING GROUP 1 FACE 29
  0
3DFACE
  8
Fixed Shading
 62
  9
 10
       -0.20000
 20
       -0.31349
 30
       -1.44980
 11
       -0.20000
 21
       -0.31749
 31
       -1.44973
 12
       -0.20000
 22
       -0.30651
 32
       -1.04986
 13
       -0.20000
 23
       -0.30651
 33
       -1.04986
999
Fixed Shading:SHADING GROUP 1 FACE 30
  0
3DFACE
  8
Fixed Shading
 62
  9
 10
        0.20000
 20
       -0.30651
 30
       -1.04986
 11
       -0.20000
 21
       -0.31051
 31
       -1.04979
 12
       -0.20000
 22
       -0.30651
 32
       -1.04986
 13
       -0.20000
 23
       -0.30651
 33
       -1.04986
999
Fixed Shading:Mir-SHADING GROUP 1 FACE 30
  0
3DFACE
  8
Fixed Shading
 62
  9
 10
       -0.20000
 20
       -0.30651
 30
       -1.04986
 11
       -0.20000
 21
       -0.31051
 31
       -1.04979
 12
        0.20000
 22
       -0.30651
 32
       -1.04986
 13
        0.20000
 23
       -0.30651
 33
       -1.04986
999
Fixed Shading:SHADING GROUP 1 FACE 31
  0
3DFACE
  8
Fixed Shading
 62
  9
 10
       -0.30000
 20
       -0.30651
 30
       -1.04986
 11
       -0.70000
 21
       -0.30651
 31
       -1.04986
 12
       -0.70000
 22
       -0.31349
 32
       -1.44980
 13
       -0.30000
 23
       -0.31349
 33
       -1.44980
999
Fixed Shading:Mir-SHADING GROUP 1 FACE 31
  0
3DFACE
  8
Fixed Shading
 62
  9
 10
       -0.30000
 20
       -0.31349
 30
       -1.44980
 11
       -0.70000
 21
       -0.31349
 31
       -1.44980
 12
       -0.70000
 22
       -0.30651
 32
       -1.04986
 13
       -0.30000
 23
       -0.30651
 33
       -1.04986
999
Fixed Shading:SHADING GROUP 1 FACE 32
  0
3DFACE
  8
Fixed Shading
 62
  9
 10
       -0.30000
 20
       -0.31749
 30
       -1.44973
 11
       -0.70000
 21
       -0.31749
 31
       -1.44973
 12
       -0.70000
 22
       -0.31051
 32
       -1.04979
 13
       -0.30000
 23
       -0.31051
 33
       -1.04979
999
Fixed Shading:Mir-SHADING GROUP 1 FACE 32
  0
3DFACE
  8
Fixed Shading
 62
  9
 10
       -0.30000
 20
       -0.31051
 30
       -1.04979
 11
       -0.70000
 21
       -0.31051
 31
       -1.04979
 12
       -0.70000
 22
       -0.31749
 32
       -1.44973
 13
       -0.30000
 23
       -0.31749
 33
       -1.44973
999
Fixed Shading:SHADING GROUP 1 FACE 33
  0
3DFACE
  8
Fixed Shading
 62
  9
 10
       -0.30000
 20
       -0.31349
 30
       -1.44980
 11
       -0.30000
 21
       -0.31051
 31
       -1.04979
 12
       -0.30000
 22
       -0.30651
 32
       -1.04986
 13
       -0.30000
 23
       -0.30651
 33
       -1.04986
999
Fixed Shading:Mir-SHADING GROUP 1 FACE 33
  0
3DFACE
  8
Fixed Shading
 62
  9
 10
       -0.30000
 20
       -0.30651
 30
       -1.04986
 11
       -0.30000
 21
       -0.31051
 31
       -1.04979
 12
       -0.30000
 22
       -0.31349
 32
       -1.44980
 13
       -0.30000
 23
       -0.31349
 33
       -1.44980
999
Fixed Shading:SHADING GROUP 1 FACE 34
  0
3DFACE
  8
Fixed Shading
 62
  9
 10
       -0.70000
 20
       -0.31349
 30
       -1.44980
 11
       -0.30000
 21
       -0.31749
 31
       -1.44973
 12
       -0.30000
 22
       -0.31349
 32
       -1.44980
 13
       -0.30000
 23
       -0.31349
 33
       -1.44980
999
Fixed Shading:Mir-SHADING GROUP 1 FACE 34
  0
3DFACE
  8
Fixed Shading
 62
  9
 10
       -0.30000
 20
       -0.31349
 30
       -1.44980
 11
       -0.30000
 21
       -0.31749
 31
       -1.44973
 12
       -0.70000
 22
       -0.31349
 32
       -1.44980
 13
       -0.70000
 23
       -0.31349
 33
       -1.44980
999
Fixed Shading:SHADING GROUP 1 FACE 35
  0
3DFACE
  8
Fixed Shading
 62
  9
 10
       -0.70000
 20
       -0.30651
 30
       -1.04986
 11
       -0.70000
 21
       -0.31749
 31
       -1.44973
 12
       -0.70000
 22
       -0.31349
 32
       -1.44980
 13
       -0.70000
 23
       -0.31349
 33
       -1.44980
999
Fixed Shading:Mir-SHADING GROUP 1 FACE 35
  0
3DFACE
  8
Fixed Shading
 62
  9
 10
       -0.70000
 20
       -0.31349
 30
       -1.44980
 11
       -0.70000
 21
       -0.31749
 31
       -1.44973
 12
       -0.70000
 22
       -0.30651
 32
       -1.04986
 13
       -0.70000
 23
       -0.30651
 33
       -1.04986
999
Fixed Shading:SHADING GROUP 1 FACE 36
  0
3DFACE
  8
Fixed Shading
 62
  9
 10
       -0.30000
 20
       -0.30651
 30
       -1.04986
 11
       -0.70000
 21
       -0.31051
 31
       -1.04979
 12
       -0.70000
 22
       -0.30651
 32
       -1.04986
 13
       -0.70000
 23
       -0.30651
 33
       -1.04986
999
Fixed Shading:Mir-SHADING GROUP 1 FACE 36
  0
3DFACE
  8
Fixed Shading
 62
  9
 10
       -0.70000
 20
       -0.30651
 30
       -1.04986
 11
       -0.70000
 21
       -0.31051
 31
       -1.04979
 12
       -0.30000
 22
       -0.30651
 32
       -1.04986
 13
       -0.30000
 23
       -0.30651
 33
       -1.04986
999
Fixed Shading:SHADING GROUP 1 FACE 37
  0
3DFACE
  8
Fixed Shading
 62
  9
 10
       -0.80000
 20
       -0.30651
 30
       -1.04986
 11
       -1.20000
 21
       -0.30651
 31
       -1.04986
 12
       -1.20000
 22
       -0.31349
 32
       -1.44980
 13
       -0.80000
 23
       -0.31349
 33
       -1.44980
999
Fixed Shading:Mir-SHADING GROUP 1 FACE 37
  0
3DFACE
  8
Fixed Shading
 62
  9
 10
       -0.80000
 20
       -0.31349
 30
       -1.44980
 11
       -1.20000
 21
       -0.31349
 31
       -1.44980
 12
       -1.20000
 22
       -0.30651
 32
       -1.04986
 13
       -0.80000
 23
       -0.30651
 33
       -1.04986
999
Fixed Shading:SHADING GROUP 1 FACE 38
  0
3DFACE
  8
Fixed Shading
 62
  9
 10
       -0.80000
 20
       -0.31749
 30
       -1.44973
 11
       -1.20000
 21
       -0.31749
 31
       -1.44973
 12
       -1.20000
 22
       -0.31051
 32
       -1.04979
 13
       -0.80000
 23
       -0.31051
 33
       -1.04979
999
Fixed Shading:Mir-SHADING GROUP 1 FACE 38
  0
3DFACE
  8
Fixed Shading
 62
  9
 10
       -0.80000
 20
       -0.31051
 30
       -1.04979
 11
       -1.20000
 21
       -0.31051
 31
       -1.04979
 12
       -1.20000
 22
       -0.31749
 32
       -1.44973
 13
       -0.80000
 23
       -0.31749
 33
       -1.44973
999
Fixed Shading:SHADING GROUP 1 FACE 39
  0
3DFACE
  8
Fixed Shading
 62
  9
 10
       -0.80000
 20
       -0.31349
 30
       -1.44980
 11
       -0.80000
 21
       -0.31051
 31
       -1.04979
 12
       -0.80000
 22
       -0.30651
 32
       -1.04986
 13
       -0.80000
 23
       -0.30651
 33
       -1.04986
999
Fixed Shading:Mir-SHADING GROUP 1 FACE 39
  0
3DFACE
  8
Fixed Shading
 62
  9
 10
       -0.80000
 20
       -0.30651
 30
       -1.04986
 11
       -0.80000
 21
       -0.31051
 31
       -1.04979
 12
       -0.80000
 22
       -0.31349
 32
       -1.44980
 13
       -0.80000
 23
       -0.31349
 33
       -1.44980
999
Fixed Shading:SHADING GROUP 1 FACE 40
  0
3DFACE
  8
Fixed Shading
 62
  9
 10
       -1.20000
 20
       -0.31349
 30
       -1.44980
 11
       -0.80000
 21
       -0.31749
 31
       -1.44973
 12
       -0.80000
 22
       -0.31349
 32
       -1.44980
 13
       -0.80000
 23
       -0.31349
 33
       -1.44980
999
Fixed Shading:Mir-SHADING GROUP 1 FACE 40
  0
3DFACE
  8
Fixed Shading
 62
  9
 10
       -0.80000
 20
       -0.31349
 30
       -1.44980
 11
       -0.80000
 21
       -0.31749
 31
       -1.44973
 12
       -1.20000
 22
       -0.31349
 32
       -1.44980
 13
       -1.20000
 23
       -0.31349
 33
       -1.44980
999
Fixed Shading:SHADING GROUP 1 FACE 41
  0
3DFACE
  8
Fixed Shading
 62
  9
 10
       -1.20000
 20
       -0.30651
 30
       -1.04986
 11
       -1.20000
 21
       -0.31749
 31
       -1.44973
 12
       -1.20000
 22
       -0.31349
 32
       -1.44980
 13
       -1.20000
 23
       -0.31349
 33
       -1.44980
999
Fixed Shading:Mir-SHADING GROUP 1 FACE 41
  0
3DFACE
  8
Fixed Shading
 62
  9
 10
       -1.20000
 20
       -0.31349
 30
       -1.44980
 11
       -1.20000
 21
       -0.31749
 31
       -1.44973
 12
       -1.20000
 22
       -0.30651
 32
       -1.04986
 13
       -1.20000
 23
       -0.30651
 33
       -1.04986
999
Fixed Shading:SHADING GROUP 1 FACE 42
  0
3DFACE
  8
Fixed Shading
 62
  9
 10
       -0.80000
 20
       -0.30651
 30
       -1.04986
 11
       -1.20000
 21
       -0.31051
 31
       -1.04979
 12
       -1.20000
 22
       -0.30651
 32
       -1.04986
 13
       -1.20000
 23
       -0.30651
 33
       -1.04986
999
Fixed Shading:Mir-SHADING GROUP 1 FACE 42
  0
3DFACE
  8
Fixed Shading
 62
  9
 10
       -1.20000
 20
       -0.30651
 30
       -1.04986
 11
       -1.20000
 21
       -0.31051
 31
       -1.04979
 12
       -0.80000
 22
       -0.30651
 32
       -1.04986
 13
       -0.80000
 23
       -0.30651
 33
       -1.04986
999
Fixed Shading:SHADING GROUP 1 FACE 43
  0
3DFACE
  8
Fixed Shading
 62
  9
 10
       -1.30000
 20
       -0.30651
 30
       -1.04986
 11
       -1.70000
 21
       -0.30651
 31
       -1.04986
 12
       -1.70000
 22
       -0.31349
 32
       -1.44980
 13
       -1.30000
 23
       -0.31349
 33
       -1.44980
999
Fixed Shading:Mir-SHADING GROUP 1 FACE 43
  0
3DFACE
  8
Fixed Shading
 62
  9
 10
       -1.30000
 20
       -0.31349
 30
       -1.44980
 11
       -1.70000
 21
       -0.31349
 31
       -1.44980
 12
       -1.70000
 22
       -0.30651
 32
       -1.04986
 13
       -1.30000
 23
       -0.30651
 33
       -1.04986
999
Fixed Shading:SHADING GROUP 1 FACE 44
  0
3DFACE
  8
Fixed Shading
 62
  9
 10
       -1.30000
 20
       -0.31749
 30
       -1.44973
 11
       -1.70000
 21
       -0.31749
 31
       -1.44973
 12
       -1.70000
 22
       -0.31051
 32
       -1.04979
 13
       -1.30000
 23
       -0.31051
 33
       -1.04979
999
Fixed Shading:Mir-SHADING GROUP 1 FACE 44
  0
3DFACE
  8
Fixed Shading
 62
  9
 10
       -1.30000
 20
       -0.31051
 30
       -1.04979
 11
       -1.70000
 21
       -0.31051
 31
       -1.04979
 12
       -1.70000
 22
       -0.31749
 32
       -1.44973
 13
       -1.30000
 23
       -0.31749
 33
       -1.44973
999
Fixed Shading:SHADING GROUP 1 FACE 45
  0
3DFACE
  8
Fixed Shading
 62
  9
 10
       -1.30000
 20
       -0.31349
 30
       -1.44980
 11
       -1.30000
 21
       -0.31051
 31
       -1.04979
 12
       -1.30000
 22
       -0.30651
 32
       -1.04986
 13
       -1.30000
 23
       -0.30651
 33
       -1.04986
999
Fixed Shading:Mir-SHADING GROUP 1 FACE 45
  0
3DFACE
  8
Fixed Shading
 62
  9
 10
       -1.30000
 20
       -0.30651
 30
       -1.04986
 11
       -1.30000
 21
       -0.31051
 31
       -1.04979
 12
       -1.30000
 22
       -0.31349
 32
       -1.44980
 13
       -1.30000
 23
       -0.31349
 33
       -1.44980
999
Fixed Shading:SHADING GROUP 1 FACE 46
  0
3DFACE
  8
Fixed Shading
 62
  9
 10
       -1.70000
 20
       -0.31349
 30
       -1.44980
 11
       -1.30000
 21
       -0.31749
 31
       -1.44973
 12
       -1.30000
 22
       -0.31349
 32
       -1.44980
 13
       -1.30000
 23
       -0.31349
 33
       -1.44980
999
Fixed Shading:Mir-SHADING GROUP 1 FACE 46
  0
3DFACE
  8
Fixed Shading
 62
  9
 10
       -1.30000
 20
       -0.31349
 30
       -1.44980
 11
       -1.30000
 21
       -0.31749
 31
       -1.44973
 12
       -1.70000
 22
       -0.31349
 32
       -1.44980
 13
       -1.70000
 23
       -0.31349
 33
       -1.44980
999
Fixed Shading:SHADING GROUP 1 FACE 47
  0
3DFACE
  8
Fixed Shading
 62
  9
 10
       -1.70000
 20
       -0.30651
 30
       -1.04986
 11
       -1.70000
 21
       -0.31749
 31
       -1.44973
 12
       -1.70000
 22
       -0.31349
 32
       -1.44980
 13
       -1.70000
 23
       -0.31349
 33
       -1.44980
999
Fixed Shading:Mir-SHADING GROUP 1 FACE 47
  0
3DFACE
  8
Fixed Shading
 62
  9
 10
       -1.70000
 20
       -0.31349
 30
       -1.44980
 11
       -1.70000
 21
       -0.31749
 31
       -1.44973
 12
       -1.70000
 22
       -0.30651
 32
       -1.04986
 13
       -1.70000
 23
       -0.30651
 33
       -1.04986
999
Fixed Shading:SHADING GROUP 1 FACE 48
  0
3DFACE
  8
Fixed Shading
 62
  9
 10
       -1.30000
 20
       -0.30651
 30
       -1.04986
 11
       -1.70000
 21
       -0.31051
 31
       -1.04979
 12
       -1.70000
 22
       -0.30651
 32
       -1.04986
 13
       -1.70000
 23
       -0.30651
 33
       -1.04986
999
Fixed Shading:Mir-SHADING GROUP 1 FACE 48
  0
3DFACE
  8
Fixed Shading
 62
  9
 10
       -1.70000
 20
       -0.30651
 30
       -1.04986
 11
       -1.70000
 21
       -0.31051
 31
       -1.04979
 12
       -1.30000
 22
       -0.30651
 32
       -1.04986
 13
       -1.30000
 23
       -0.30651
 33
       -1.04986
999
Fixed Shading:SHADING GROUP 1 FACE 49
  0
3DFACE
  8
Fixed Shading
 62
  9
 10
       -1.80000
 20
       -0.30651
 30
       -1.04986
 11
       -2.20000
 21
       -0.30651
 31
       -1.04986
 12
       -2.20000
 22
       -0.31349
 32
       -1.44980
 13
       -1.80000
 23
       -0.31349
 33
       -1.44980
999
Fixed Shading:Mir-SHADING GROUP 1 FACE 49
  0
3DFACE
  8
Fixed Shading
 62
  9
 10
       -1.80000
 20
       -0.31349
 30
       -1.44980
 11
       -2.20000
 21
       -0.31349
 31
       -1.44980
 12
       -2.20000
 22
       -0.30651
 32
       -1.04986
 13
       -1.80000
 23
       -0.30651
 33
       -1.04986
999
Fixed Shading:SHADING GROUP 1 FACE 50
  0
3DFACE
  8
Fixed Shading
 62
  9
 10
       -1.80000
 20
       -0.31749
 30
       -1.44973
 11
       -2.20000
 21
       -0.31749
 31
       -1.44973
 12
       -2.20000
 22
       -0.31051
 32
       -1.04979
 13
       -1.80000
 23
       -0.31051
 33
       -1.04979
999
Fixed Shading:Mir-SHADING GROUP 1 FACE 50
  0
3DFACE
  8
Fixed Shading
 62
  9
 10
       -1.80000
 20
       -0.31051
 30
       -1.04979
 11
       -2.20000
 21
       -0.31051
 31
       -1.04979
 12
       -2.20000
 22
       -0.31749
 32
       -1.44973
 13
       -1.80000
 23
       -0.31749
 33
       -1.44973
999
Fixed Shading:SHADING GROUP 1 FACE 51
  0
3DFACE
  8
Fixed Shading
 62
  9
 10
       -1.80000
 20
       -0.31349
 30
       -1.44980
 11
       -1.80000
 21
       -0.31051
 31
       -1.04979
 12
       -1.80000
 22
       -0.30651
 32
       -1.04986
 13
       -1.80000
 23
       -0.30651
 33
       -1.04986
999
Fixed Shading:Mir-SHADING GROUP 1 FACE 51
  0
3DFACE
  8
Fixed Shading
 62
  9
 10
       -1.80000
 20
       -0.30651
 30
       -1.04986
 11
       -1.80000
 21
       -0.31051
 31
       -1.04979
 12
       -1.80000
 22
       -0.31349
 32
       -1.44980
 13
       -1.80000
 23
       -0.31349
 33
       -1.44980
999
Fixed Shading:SHADING GROUP 1 FACE 52
  0
3DFACE
  8
Fixed Shading
 62
  9
 10
       -2.20000
 20
       -0.31349
 30
       -1.44980
 11
       -1.80000
 21
       -0.31749
 31
       -1.44973
 12
       -1.80000
 22
       -0.31349
 32
       -1.44980
 13
       -1.80000
 23
       -0.31349
 33
       -1.44980
999
Fixed Shading:Mir-SHADING GROUP 1 FACE 52
  0
3DFACE
  8
Fixed Shading
 62
  9
 10
       -1.80000
 20
       -0.31349
 30
       -1.44980
 11
       -1.80000
 21
       -0.31749
 31
       -1.44973
 12
       -2.20000
 22
       -0.31349
 32
       -1.44980
 13
       -2.20000
 23
       -0.31349
 33
       -1.44980
999
Fixed Shading:SHADING GROUP 1 FACE 53
  0
3DFACE
  8
Fixed Shading
 62
  9
 10
       -2.20000
 20
       -0.30651
 30
       -1.04986
 11
       -2.20000
 21
       -0.31749
 31
       -1.44973
 12
       -2.20000
 22
       -0.31349
 32
       -1.44980
 13
       -2.20000
 23
       -0.31349
 33
       -1.44980
999
Fixed Shading:Mir-SHADING GROUP 1 FACE 53
  0
3DFACE
  8
Fixed Shading
 62
  9
 10
       -2.20000
 20
       -0.31349
 30
       -1.44980
 11
       -2.20000
 21
       -0.31749
 31
       -1.44973
 12
       -2.20000
 22
       -0.30651
 32
       -1.04986
 13
       -2.20000
 23
       -0.30651
 33
       -1.04986
999
Fixed Shading:SHADING GROUP 1 FACE 54
  0
3DFACE
  8
Fixed Shading
 62
  9
 10
       -1.80000
 20
       -0.30651
 30
       -1.04986
 11
       -2.20000
 21
       -0.31051
 31
       -1.04979
 12
       -2.20000
 22
       -0.30651
 32
       -1.04986
 13
       -2.20000
 23
       -0.30651
 33
       -1.04986
999
Fixed Shading:Mir-SHADING GROUP 1 FACE 54
  0
3DFACE
  8
Fixed Shading
 62
  9
 10
       -2.20000
 20
       -0.30651
 30
       -1.04986
 11
       -2.20000
 21
       -0.31051
 31
       -1.04979
 12
       -1.80000
 22
       -0.30651
 32
       -1.04986
 13
       -1.80000
 23
       -0.30651
 33
       -1.04986
999
Fixed Shading:SHADING GROUP 1 FACE 55
  0
3DFACE
  8
Fixed Shading
 62
  9
 10
        2.20000
 20
       -0.30651
 30
       -0.54986
 11
        1.80000
 21
       -0.30651
 31
       -0.54986
 12
        1.80000
 22
       -0.31349
 32
       -0.94980
 13
        2.20000
 23
       -0.31349
 33
       -0.94980
999
Fixed Shading:Mir-SHADING GROUP 1 FACE 55
  0
3DFACE
  8
Fixed Shading
 62
  9
 10
        2.20000
 20
       -0.31349
 30
       -0.94980
 11
        1.80000
 21
       -0.31349
 31
       -0.94980
 12
        1.80000
 22
       -0.30651
 32
       -0.54986
 13
        2.20000
 23
       -0.30651
 33
       -0.54986
999
Fixed Shading:SHADING GROUP 1 FACE 56
  0
3DFACE
  8
Fixed Shading
 62
  9
 10
        2.20000
 20
       -0.31749
 30
       -0.94973
 11
        1.80000
 21
       -0.31749
 31
       -0.94973
 12
        1.80000
 22
       -0.31051
 32
       -0.54979
 13
        2.20000
 23
       -0.31051
 33
       -0.54979
999
Fixed Shading:Mir-SHADING GROUP 1 FACE 56
  0
3DFACE
  8
Fixed Shading
 62
  9
 10
        2.20000
 20
       -0.31051
 30
       -0.54979
 11
        1.80000
 21
       -0.31051
 31
       -0.54979
 12
        1.80000
 22
       -0.31749
 32
       -0.94973
 13
        2.20000
 23
       -0.31749
 33
       -0.94973
999
Fixed Shading:SHADING GROUP 1 FACE 57
  0
3DFACE
  8
Fixed Shading
 62
  9
 10
        2.20000
 20
       -0.31349
 30
       -0.94980
 11
        2.20000
 21
       -0.31051
 31
       -0.54979
 12
        2.20000
 22
       -0.30651
 32
       -0.54986
 13
        2.20000
 23
       -0.30651
 33
       -0.54986
999
Fixed Shading:Mir-SHADING GROUP 1 FACE 57
  0
3DFACE
  8
Fixed Shading
 62
  9
 10
        2.20000
 20
       -0.30651
 30
       -0.54986
 11
        2.20000
 21
       -0.31051
 31
       -0.54979
 12
        2.20000
 22
       -0.31349
 32
       -0.94980
 13
        2.20000
 23
       -0.31349
 33
       -0.94980
999
Fixed Shading:SHADING GROUP 1 FACE 58
  0
3DFACE
  8
Fixed Shading
 62
  9
 10
        1.80000
 20
       -0.31349
 30
       -0.94980
 11
        2.20000
 21
       -0.31749
 31
       -0.94973
 12
        2.20000
 22
       -0.31349
 32
       -0.94980
 13
        2.20000
 23
       -0.31349
 33
       -0.94980
999
Fixed Shading:Mir-SHADING GROUP 1 FACE 58
  0
3DFACE
  8
Fixed Shading
 62
  9
 10
        2.20000
 20
       -0.31349
 30
       -0.94980
 11
        2.20000
 21
       -0.31749
 31
       -0.94973
 12
        1.80000
 22
       -0.31349
 32
       -0.94980
 13
        1.80000
 23
       -0.31349
 33
       -0.94980
999
Fixed Shading:SHADING GROUP 1 FACE 59
  0
3DFACE
  8
Fixed Shading
 62
  9
 10
        1.80000
 20
       -0.30651
 30
       -0.54986
 11
        1.80000
 21
       -0.31749
 31
       -0.94973
 12
        1.80000
 22
       -0.31349
 32
       -0.94980
 13
        1.80000
 23
       -0.31349
 33
       -0.94980
999
Fixed Shading:Mir-SHADING GROUP 1 FACE 59
  0
3DFACE
  8
Fixed Shading
 62
  9
 10
        1.80000
 20
       -0.31349
 30
       -0.94980
 11
        1.80000
 21
       -0.31749
 31
       -0.94973
 12
        1.80000
 22
       -0.30651
 32
       -0.54986
 13
        1.80000
 23
       -0.30651
 33
       -0.54986
999
Fixed Shading:SHADING GROUP 1 FACE 60
  0
3DFACE
  8
Fixed Shading
 62
  9
 10
        2.20000
 20
       -0.30651
 30
       -0.54986
 11
        1.80000
 21
       -0.31051
 31
       -0.54979
 12
        1.80000
 22
       -0.30651
 32
       -0.54986
 13
        1.80000
 23
       -0.30651
 33
       -0.54986
999
Fixed Shading:Mir-SHADING GROUP 1 FACE 60
  0
3DFACE
  8
Fixed Shading
 62
  9
 10
        1.80000
 20
       -0.30651
 30
       -0.54986
 11
        1.80000
 21
       -0.31051
 31
       -0.54979
 12
        2.20000
 22
       -0.30651
 32
       -0.54986
 13
        2.20000
 23
       -0.30651
 33
       -0.54986
999
Fixed Shading:SHADING GROUP 1 FACE 61
  0
3DFACE
  8
Fixed Shading
 62
  9
 10
        1.70000
 20
       -0.30651
 30
       -0.54986
 11
        1.30000
 21
       -0.30651
 31
       -0.54986
 12
        1.30000
 22
       -0.31349
 32
       -0.94980
 13
        1.70000
 23
       -0.31349
 33
       -0.94980
999
Fixed Shading:Mir-SHADING GROUP 1 FACE 61
  0
3DFACE
  8
Fixed Shading
 62
  9
 10
        1.70000
 20
       -0.31349
 30
       -0.94980
 11
        1.30000
 21
       -0.31349
 31
       -0.94980
 12
        1.30000
 22
       -0.30651
 32
       -0.54986
 13
        1.70000
 23
       -0.30651
 33
       -0.54986
999
Fixed Shading:SHADING GROUP 1 FACE 62
  0
3DFACE
  8
Fixed Shading
 62
  9
 10
        1.70000
 20
       -0.31749
 30
       -0.94973
 11
        1.30000
 21
       -0.31749
 31
       -0.94973
 12
        1.30000
 22
       -0.31051
 32
       -0.54979
 13
        1.70000
 23
       -0.31051
 33
       -0.54979
999
Fixed Shading:Mir-SHADING GROUP 1 FACE 62
  0
3DFACE
  8
Fixed Shading
 62
  9
 10
        1.70000
 20
       -0.31051
 30
       -0.54979
 11
        1.30000
 21
       -0.31051
 31
       -0.54979
 12
        1.30000
 22
       -0.31749
 32
       -0.94973
 13
        1.70000
 23
       -0.31749
 33
       -0.94973
999
Fixed Shading:SHADING GROUP 1 FACE 63
  0
3DFACE
  8
Fixed Shading
 62
  9
 10
        1.70000
 20
       -0.31349
 30
       -0.94980
 11
        1.70000
 21
       -0.31051
 31
       -0.54979
 12
        1.70000
 22
       -0.30651
 32
       -0.54986
 13
        1.70000
 23
       -0.30651
 33
       -0.54986
999
Fixed Shading:Mir-SHADING GROUP 1 FACE 63
  0
3DFACE
  8
Fixed Shading
 62
  9
 10
        1.70000
 20
       -0.30651
 30
       -0.54986
 11
        1.70000
 21
       -0.31051
 31
       -0.54979
 12
        1.70000
 22
       -0.31349
 32
       -0.94980
 13
        1.70000
 23
       -0.31349
 33
       -0.94980
999
Fixed Shading:SHADING GROUP 1 FACE 64
  0
3DFACE
  8
Fixed Shading
 62
  9
 10
        1.30000
 20
       -0.31349
 30
       -0.94980
 11
        1.70000
 21
       -0.31749
 31
       -0.94973
 12
        1.70000
 22
       -0.31349
 32
       -0.94980
 13
        1.70000
 23
       -0.31349
 33
       -0.94980
999
Fixed Shading:Mir-SHADING GROUP 1 FACE 64
  0
3DFACE
  8
Fixed Shading
 62
  9
 10
        1.70000
 20
       -0.31349
 30
       -0.94980
 11
        1.70000
 21
       -0.31749
 31
       -0.94973
 12
        1.30000
 22
       -0.31349
 32
       -0.94980
 13
        1.30000
 23
       -0.31349
 33
       -0.94980
999
Fixed Shading:SHADING GROUP 1 FACE 65
  0
3DFACE
  8
Fixed Shading
 62
  9
 10
        1.30000
 20
       -0.30651
 30
       -0.54986
 11
        1.30000
 21
       -0.31749
 31
       -0.94973
 12
        1.30000
 22
       -0.31349
 32
       -0.94980
 13
        1.30000
 23
       -0.31349
 33
       -0.94980
999
Fixed Shading:Mir-SHADING GROUP 1 FACE 65
  0
3DFACE
  8
Fixed Shading
 62
  9
 10
        1.30000
 20
       -0.31349
 30
       -0.94980
 11
        1.30000
 21
       -0.31749
 31
       -0.94973
 12
        1.30000
 22
       -0.30651
 32
       -0.54986
 13
        1.30000
 23
       -0.30651
 33
       -0.54986
999
Fixed Shading:SHADING GROUP 1 FACE 66
  0
3DFACE
  8
Fixed Shading
 62
  9
 10
        1.70000
 20
       -0.30651
 30
       -0.54986
 11
        1.30000
 21
       -0.31051
 31
       -0.54979
 12
        1.30000
 22
       -0.30651
 32
       -0.54986
 13
        1.30000
 23
       -0.30651
 33
       -0.54986
999
Fixed Shading:Mir-SHADING GROUP 1 FACE 66
  0
3DFACE
  8
Fixed Shading
 62
  9
 10
        1.30000
 20
       -0.30651
 30
       -0.54986
 11
        1.30000
 21
       -0.31051
 31
       -0.54979
 12
        1.70000
 22
       -0.30651
 32
       -0.54986
 13
        1.70000
 23
       -0.30651
 33
       -0.54986
999
Fixed Shading:SHADING GROUP 1 FACE 67
  0
3DFACE
  8
Fixed Shading
 62
  9
 10
        1.20000
 20
       -0.30651
 30
       -0.54986
 11
        0.80000
 21
       -0.30651
 31
       -0.54986
 12
        0.80000
 22
       -0.31349
 32
       -0.94980
 13
        1.20000
 23
       -0.31349
 33
       -0.94980
999
Fixed Shading:Mir-SHADING GROUP 1 FACE 67
  0
3DFACE
  8
Fixed Shading
 62
  9
 10
        1.20000
 20
       -0.31349
 30
       -0.94980
 11
        0.80000
 21
       -0.31349
 31
       -0.94980
 12
        0.80000
 22
       -0.30651
 32
       -0.54986
 13
        1.20000
 23
       -0.30651
 33
       -0.54986
999
Fixed Shading:SHADING GROUP 1 FACE 68
  0
3DFACE
  8
Fixed Shading
 62
  9
 10
        1.20000
 20
       -0.31749
 30
       -0.94973
 11
        0.80000
 21
       -0.31749
 31
       -0.94973
 12
        0.80000
 22
       -0.31051
 32
       -0.54979
 13
        1.20000
 23
       -0.31051
 33
       -0.54979
999
Fixed Shading:Mir-SHADING GROUP 1 FACE 68
  0
3DFACE
  8
Fixed Shading
 62
  9
 10
        1.20000
 20
       -0.31051
 30
       -0.54979
 11
        0.80000
 21
       -0.31051
 31
       -0.54979
 12
        0.80000
 22
       -0.31749
 32
       -0.94973
 13
        1.20000
 23
       -0.31749
 33
       -0.94973
999
Fixed Shading:SHADING GROUP 1 FACE 69
  0
3DFACE
  8
Fixed Shading
 62
  9
 10
        1.20000
 20
       -0.31349
 30
       -0.94980
 11
        1.20000
 21
       -0.31051
 31
       -0.54979
 12
        1.20000
 22
       -0.30651
 32
       -0.54986
 13
        1.20000
 23
       -0.30651
 33
       -0.54986
999
Fixed Shading:Mir-SHADING GROUP 1 FACE 69
  0
3DFACE
  8
Fixed Shading
 62
  9
 10
        1.20000
 20
       -0.30651
 30
       -0.54986
 11
        1.20000
 21
       -0.31051
 31
       -0.54979
 12
        1.20000
 22
       -0.31349
 32
       -0.94980
 13
        1.20000
 23
       -0.31349
 33
       -0.94980
999
Fixed Shading:SHADING GROUP 1 FACE 70
  0
3DFACE
  8
Fixed Shading
 62
  9
 10
        0.80000
 20
       -0.31349
 30
       -0.94980
 11
        1.20000
 21
       -0.31749
 31
       -0.94973
 12
        1.20000
 22
       -0.31349
 32
       -0.94980
 13
        1.20000
 23
       -0.31349
 33
       -0.94980
999
Fixed Shading:Mir-SHADING GROUP 1 FACE 70
  0
3DFACE
  8
Fixed Shading
 62
  9
 10
        1.20000
 20
       -0.31349
 30
       -0.94980
 11
        1.20000
 21
       -0.31749
 31
       -0.94973
 12
        0.80000
 22
       -0.31349
 32
       -0.94980
 13
        0.80000
 23
       -0.31349
 33
       -0.94980
999
Fixed Shading:SHADING GROUP 1 FACE 71
  0
3DFACE
  8
Fixed Shading
 62
  9
 10
        0.80000
 20
       -0.30651
 30
       -0.54986
 11
        0.80000
 21
       -0.31749
 31
       -0.94973
 12
        0.80000
 22
       -0.31349
 32
       -0.94980
 13
        0.80000
 23
       -0.31349
 33
       -0.94980
999
Fixed Shading:Mir-SHADING GROUP 1 FACE 71
  0
3DFACE
  8
Fixed Shading
 62
  9
 10
        0.80000
 20
       -0.31349
 30
       -0.94980
 11
        0.80000
 21
       -0.31749
 31
       -0.94973
 12
        0.80000
 22
       -0.30651
 32
       -0.54986
 13
        0.80000
 23
       -0.30651
 33
       -0.54986
999
Fixed Shading:SHADING GROUP 1 FACE 72
  0
3DFACE
  8
Fixed Shading
 62
  9
 10
        1.20000
 20
       -0.30651
 30
       -0.54986
 11
        0.80000
 21
       -0.31051
 31
       -0.54979
 12
        0.80000
 22
       -0.30651
 32
       -0.54986
 13
        0.80000
 23
       -0.30651
 33
       -0.54986
999
Fixed Shading:Mir-SHADING GROUP 1 FACE 72
  0
3DFACE
  8
Fixed Shading
 62
  9
 10
        0.80000
 20
       -0.30651
 30
       -0.54986
 11
        0.80000
 21
       -0.31051
 31
       -0.54979
 12
        1.20000
 22
       -0.30651
 32
       -0.54986
 13
        1.20000
 23
       -0.30651
 33
       -0.54986
999
Fixed Shading:SHADING GROUP 1 FACE 73
  0
3DFACE
  8
Fixed Shading
 62
  9
 10
        0.70000
 20
       -0.30651
 30
       -0.54986
 11
        0.30000
 21
       -0.30651
 31
       -0.54986
 12
        0.30000
 22
       -0.31349
 32
       -0.94980
 13
        0.70000
 23
       -0.31349
 33
       -0.94980
999
Fixed Shading:Mir-SHADING GROUP 1 FACE 73
  0
3DFACE
  8
Fixed Shading
 62
  9
 10
        0.70000
 20
       -0.31349
 30
       -0.94980
 11
        0.30000
 21
       -0.31349
 31
       -0.94980
 12
        0.30000
 22
       -0.30651
 32
       -0.54986
 13
        0.70000
 23
       -0.30651
 33
       -0.54986
999
Fixed Shading:SHADING GROUP 1 FACE 74
  0
3DFACE
  8
Fixed Shading
 62
  9
 10
        0.70000
 20
       -0.31749
 30
       -0.94973
 11
        0.30000
 21
       -0.31749
 31
       -0.94973
 12
        0.30000
 22
       -0.31051
 32
       -0.54979
 13
        0.70000
 23
       -0.31051
 33
       -0.54979
999
Fixed Shading:Mir-SHADING GROUP 1 FACE 74
  0
3DFACE
  8
Fixed Shading
 62
  9
 10
        0.70000
 20
       -0.31051
 30
       -0.54979
 11
        0.30000
 21
       -0.31051
 31
       -0.54979
 12
        0.30000
 22
       -0.31749
 32
       -0.94973
 13
        0.70000
 23
       -0.31749
 33
       -0.94973
999
Fixed Shading:SHADING GROUP 1 FACE 75
  0
3DFACE
  8
Fixed Shading
 62
  9
 10
        0.70000
 20
       -0.31349
 30
       -0.94980
 11
        0.70000
 21
       -0.31051
 31
       -0.54979
 12
        0.70000
 22
       -0.30651
 32
       -0.54986
 13
        0.70000
 23
       -0.30651
 33
       -0.54986
999
Fixed Shading:Mir-SHADING GROUP 1 FACE 75
  0
3DFACE
  8
Fixed Shading
 62
  9
 10
        0.70000
 20
       -0.30651
 30
       -0.54986
 11
        0.70000
 21
       -0.31051
 31
       -0.54979
 12
        0.70000
 22
       -0.31349
 32
       -0.94980
 13
        0.70000
 23
       -0.31349
 33
       -0.94980
999
Fixed Shading:SHADING GROUP 1 FACE 76
  0
3DFACE
  8
Fixed Shading
 62
  9
 10
        0.30000
 20
       -0.31349
 30
       -0.94980
 11
        0.70000
 21
       -0.31749
 31
       -0.94973
 12
        0.70000
 22
       -0.31349
 32
       -0.94980
 13
        0.70000
 23
       -0.31349
 33
       -0.94980
999
Fixed Shading:Mir-SHADING GROUP 1 FACE 76
  0
3DFACE
  8
Fixed Shading
 62
  9
 10
        0.70000
 20
       -0.31349
 30
       -0.94980
 11
        0.70000
 21
       -0.31749
 31
       -0.94973
 12
        0.30000
 22
       -0.31349
 32
       -0.94980
 13
        0.30000
 23
       -0.31349
 33
       -0.94980
999
Fixed Shading:SHADING GROUP 1 FACE 77
  0
3DFACE
  8
Fixed Shading
 62
  9
 10
        0.30000
 20
       -0.30651
 30
       -0.54986
 11
        0.30000
 21
       -0.31749
 31
       -0.94973
 12
        0.30000
 22
       -0.31349
 32
       -0.94980
 13
        0.30000
 23
       -0.31349
 33
       -0.94980
999
Fixed Shading:Mir-SHADING GROUP 1 FACE 77
  0
3DFACE
  8
Fixed Shading
 62
  9
 10
        0.30000
 20
       -0.31349
 30
       -0.94980
 11
        0.30000
 21
       -0.31749
 31
       -0.94973
 12
        0.30000
 22
       -0.30651
 32
       -0.54986
 13
        0.30000
 23
       -0.30651
 33
       -0.54986
999
Fixed Shading:SHADING GROUP 1 FACE 78
  0
3DFACE
  8
Fixed Shading
 62
  9
 10
        0.70000
 20
       -0.30651
 30
       -0.54986
 11
        0.30000
 21
       -0.31051
 31
       -0.54979
 12
        0.30000
 22
       -0.30651
 32
       -0.54986
 13
        0.30000
 23
       -0.30651
 33
       -0.54986
999
Fixed Shading:Mir-SHADING GROUP 1 FACE 78
  0
3DFACE
  8
Fixed Shading
 62
  9
 10
        0.30000
 20
       -0.30651
 30
       -0.54986
 11
        0.30000
 21
       -0.31051
 31
       -0.54979
 12
        0.70000
 22
       -0.30651
 32
       -0.54986
 13
        0.70000
 23
       -0.30651
 33
       -0.54986
999
Fixed Shading:SHADING GROUP 1 FACE 79
  0
3DFACE
  8
Fixed Shading
 62
  9
 10
        0.20000
 20
       -0.30651
 30
       -0.54986
 11
       -0.20000
 21
       -0.30651
 31
       -0.54986
 12
       -0.20000
 22
       -0.31349
 32
       -0.94980
 13
        0.20000
 23
       -0.31349
 33
       -0.94980
999
Fixed Shading:Mir-SHADING GROUP 1 FACE 79
  0
3DFACE
  8
Fixed Shading
 62
  9
 10
        0.20000
 20
       -0.31349
 30
       -0.94980
 11
       -0.20000
 21
       -0.31349
 31
       -0.94980
 12
       -0.20000
 22
       -0.30651
 32
       -0.54986
 13
        0.20000
 23
       -0.30651
 33
       -0.54986
999
Fixed Shading:SHADING GROUP 1 FACE 80
  0
3DFACE
  8
Fixed Shading
 62
  9
 10
        0.20000
 20
       -0.31749
 30
       -0.94973
 11
       -0.20000
 21
       -0.31749
 31
       -0.94973
 12
       -0.20000
 22
       -0.31051
 32
       -0.54979
 13
        0.20000
 23
       -0.31051
 33
       -0.54979
999
Fixed Shading:Mir-SHADING GROUP 1 FACE 80
  0
3DFACE
  8
Fixed Shading
 62
  9
 10
        0.20000
 20
       -0.31051
 30
       -0.54979
 11
       -0.20000
 21
       -0.31051
 31
       -0.54979
 12
       -0.20000
 22
       -0.31749
 32
       -0.94973
 13
        0.20000
 23
       -0.31749
 33
       -0.94973
999
Fixed Shading:SHADING GROUP 1 FACE 81
  0
3DFACE
  8
Fixed Shading
 62
  9
 10
        0.20000
 20
       -0.31349
 30
       -0.94980
 11
        0.20000
 21
       -0.31051
 31
       -0.54979
 12
        0.20000
 22
       -0.30651
 32
       -0.54986
 13
        0.20000
 23
       -0.30651
 33
       -0.54986
999
Fixed Shading:Mir-SHADING GROUP 1 FACE 81
  0
3DFACE
  8
Fixed Shading
 62
  9
 10
        0.20000
 20
       -0.30651
 30
       -0.54986
 11
        0.20000
 21
       -0.31051
 31
       -0.54979
 12
        0.20000
 22
       -0.31349
 32
       -0.94980
 13
        0.20000
 23
       -0.31349
 33
       -0.94980
999
Fixed Shading:SHADING GROUP 1 FACE 82
  0
3DFACE
  8
Fixed Shading
 62
  9
 10
       -0.20000
 20
       -0.31349
 30
       -0.94980
 11
        0.20000
 21
       -0.31749
 31
       -0.94973
 12
        0.20000
 22
       -0.31349
 32
       -0.94980
 13
        0.20000
 23
       -0.31349
 33
       -0.94980
999
Fixed Shading:Mir-SHADING GROUP 1 FACE 82
  0
3DFACE
  8
Fixed Shading
 62
  9
 10
        0.20000
 20
       -0.31349
 30
       -0.94980
 11
        0.20000
 21
       -0.31749
 31
       -0.94973
 12
       -0.20000
 22
       -0.31349
 32
       -0.94980
 13
       -0.20000
 23
       -0.31349
 33
       -0.94980
999
Fixed Shading:SHADING GROUP 1 FACE 83
  0
3DFACE
  8
Fixed Shading
 62
  9
 10
       -0.20000
 20
       -0.30651
 30
       -0.54986
 11
       -0.20000
 21
       -0.31749
 31
       -0.94973
 12
       -0.20000
 22
       -0.31349
 32
       -0.94980
 13
       -0.20000
 23
       -0.31349
 33
       -0.94980
999
Fixed Shading:Mir-SHADING GROUP 1 FACE 83
  0
3DFACE
  8
Fixed Shading
 62
  9
 10
       -0.20000
 20
       -0.31349
 30
       -0.94980
 11
       -0.20000
 21
       -0.31749
 31
       -0.94973
 12
       -0.20000
 22
       -0.30651
 32
       -0.54986
 13
       -0.20000
 23
       -0.30651
 33
       -0.54986
999
Fixed Shading:SHADING GROUP 1 FACE 84
  0
3DFACE
  8
Fixed Shading
 62
  9
 10
        0.20000
 20
       -0.30651
 30
       -0.54986
 11
       -0.20000
 21
       -0.31051
 31
       -0.54979
 12
       -0.20000
 22
       -0.30651
 32
       -0.54986
 13
       -0.20000
 23
       -0.30651
 33
       -0.54986
999
Fixed Shading:Mir-SHADING GROUP 1 FACE 84
  0
3DFACE
  8
Fixed Shading
 62
  9
 10
       -0.20000
 20
       -0.30651
 30
       -0.54986
 11
       -0.20000
 21
       -0.31051
 31
       -0.54979
 12
        0.20000
 22
       -0.30651
 32
       -0.54986
 13
        0.20000
 23
       -0.30651
 33
       -0.54986
999
Fixed Shading:SHADING GROUP 1 FACE 85
  0
3DFACE
  8
Fixed Shading
 62
  9
 10
       -0.30000
 20
       -0.30651
 30
       -0.54986
 11
       -0.70000
 21
       -0.30651
 31
       -0.54986
 12
       -0.70000
 22
       -0.31349
 32
       -0.94980
 13
       -0.30000
 23
       -0.31349
 33
       -0.94980
999
Fixed Shading:Mir-SHADING GROUP 1 FACE 85
  0
3DFACE
  8
Fixed Shading
 62
  9
 10
       -0.30000
 20
       -0.31349
 30
       -0.94980
 11
       -0.70000
 21
       -0.31349
 31
       -0.94980
 12
       -0.70000
 22
       -0.30651
 32
       -0.54986
 13
       -0.30000
 23
       -0.30651
 33
       -0.54986
999
Fixed Shading:SHADING GROUP 1 FACE 86
  0
3DFACE
  8
Fixed Shading
 62
  9
 10
       -0.30000
 20
       -0.31749
 30
       -0.94973
 11
       -0.70000
 21
       -0.31749
 31
       -0.94973
 12
       -0.70000
 22
       -0.31051
 32
       -0.54979
 13
       -0.30000
 23
       -0.31051
 33
       -0.54979
999
Fixed Shading:Mir-SHADING GROUP 1 FACE 86
  0
3DFACE
  8
Fixed Shading
 62
  9
 10
       -0.30000
 20
       -0.31051
 30
       -0.54979
 11
       -0.70000
 21
       -0.31051
 31
       -0.54979
 12
       -0.70000
 22
       -0.31749
 32
       -0.94973
 13
       -0.30000
 23
       -0.31749
 33
       -0.94973
999
Fixed Shading:SHADING GROUP 1 FACE 87
  0
3DFACE
  8
Fixed Shading
 62
  9
 10
       -0.30000
 20
       -0.31349
 30
       -0.94980
 11
       -0.30000
 21
       -0.31051
 31
       -0.54979
 12
       -0.30000
 22
       -0.30651
 32
       -0.54986
 13
       -0.30000
 23
       -0.30651
 33
       -0.54986
999
Fixed Shading:Mir-SHADING GROUP 1 FACE 87
  0
3DFACE
  8
Fixed Shading
 62
  9
 10
       -0.30000
 20
       -0.30651
 30
       -0.54986
 11
       -0.30000
 21
       -0.31051
 31
       -0.54979
 12
       -0.30000
 22
       -0.31349
 32
       -0.94980
 13
       -0.30000
 23
       -0.31349
 33
       -0.94980
999
Fixed Shading:SHADING GROUP 1 FACE 88
  0
3DFACE
  8
Fixed Shading
 62
  9
 10
       -0.70000
 20
       -0.31349
 30
       -0.94980
 11
       -0.30000
 21
       -0.31749
 31
       -0.94973
 12
       -0.30000
 22
       -0.31349
 32
       -0.94980
 13
       -0.30000
 23
       -0.31349
 33
       -0.94980
999
Fixed Shading:Mir-SHADING GROUP 1 FACE 88
  0
3DFACE
  8
Fixed Shading
 62
  9
 10
       -0.30000
 20
       -0.31349
 30
       -0.94980
 11
       -0.30000
 21
       -0.31749
 31
       -0.94973
 12
       -0.70000
 22
       -0.31349
 32
       -0.94980
 13
       -0.70000
 23
       -0.31349
 33
       -0.94980
999
Fixed Shading:SHADING GROUP 1 FACE 89
  0
3DFACE
  8
Fixed Shading
 62
  9
 10
       -0.70000
 20
       -0.30651
 30
       -0.54986
 11
       -0.70000
 21
       -0.31749
 31
       -0.94973
 12
       -0.70000
 22
       -0.31349
 32
       -0.94980
 13
       -0.70000
 23
       -0.31349
 33
       -0.94980
999
Fixed Shading:Mir-SHADING GROUP 1 FACE 89
  0
3DFACE
  8
Fixed Shading
 62
  9
 10
       -0.70000
 20
       -0.31349
 30
       -0.94980
 11
       -0.70000
 21
       -0.31749
 31
       -0.94973
 12
       -0.70000
 22
       -0.30651
 32
       -0.54986
 13
       -0.70000
 23
       -0.30651
 33
       -0.54986
999
Fixed Shading:SHADING GROUP 1 FACE 90
  0
3DFACE
  8
Fixed Shading
 62
  9
 10
       -0.30000
 20
       -0.30651
 30
       -0.54986
 11
       -0.70000
 21
       -0.31051
 31
       -0.54979
 12
       -0.70000
 22
       -0.30651
 32
       -0.54986
 13
       -0.70000
 23
       -0.30651
 33
       -0.54986
999
Fixed Shading:Mir-SHADING GROUP 1 FACE 90
  0
3DFACE
  8
Fixed Shading
 62
  9
 10
       -0.70000
 20
       -0.30651
 30
       -0.54986
 11
       -0.70000
 21
       -0.31051
 31
       -0.54979
 12
       -0.30000
 22
       -0.30651
 32
       -0.54986
 13
       -0.30000
 23
       -0.30651
 33
       -0.54986
999
Fixed Shading:SHADING GROUP 1 FACE 91
  0
3DFACE
  8
Fixed Shading
 62
  9
 10
       -0.80000
 20
       -0.30651
 30
       -0.54986
 11
       -1.20000
 21
       -0.30651
 31
       -0.54986
 12
       -1.20000
 22
       -0.31349
 32
       -0.94980
 13
       -0.80000
 23
       -0.31349
 33
       -0.94980
999
Fixed Shading:Mir-SHADING GROUP 1 FACE 91
  0
3DFACE
  8
Fixed Shading
 62
  9
 10
       -0.80000
 20
       -0.31349
 30
       -0.94980
 11
       -1.20000
 21
       -0.31349
 31
       -0.94980
 12
       -1.20000
 22
       -0.30651
 32
       -0.54986
 13
       -0.80000
 23
       -0.30651
 33
       -0.54986
999
Fixed Shading:SHADING GROUP 1 FACE 92
  0
3DFACE
  8
Fixed Shading
 62
  9
 10
       -0.80000
 20
       -0.31749
 30
       -0.94973
 11
       -1.20000
 21
       -0.31749
 31
       -0.94973
 12
       -1.20000
 22
       -0.31051
 32
       -0.54979
 13
       -0.80000
 23
       -0.31051
 33
       -0.54979
999
Fixed Shading:Mir-SHADING GROUP 1 FACE 92
  0
3DFACE
  8
Fixed Shading
 62
  9
 10
       -0.80000
 20
       -0.31051
 30
       -0.54979
 11
       -1.20000
 21
       -0.31051
 31
       -0.54979
 12
       -1.20000
 22
       -0.31749
 32
       -0.94973
 13
       -0.80000
 23
       -0.31749
 33
       -0.94973
999
Fixed Shading:SHADING GROUP 1 FACE 93
  0
3DFACE
  8
Fixed Shading
 62
  9
 10
       -0.80000
 20
       -0.31349
 30
       -0.94980
 11
       -0.80000
 21
       -0.31051
 31
       -0.54979
 12
       -0.80000
 22
       -0.30651
 32
       -0.54986
 13
       -0.80000
 23
       -0.30651
 33
       -0.54986
999
Fixed Shading:Mir-SHADING GROUP 1 FACE 93
  0
3DFACE
  8
Fixed Shading
 62
  9
 10
       -0.80000
 20
       -0.30651
 30
       -0.54986
 11
       -0.80000
 21
       -0.31051
 31
       -0.54979
 12
       -0.80000
 22
       -0.31349
 32
       -0.94980
 13
       -0.80000
 23
       -0.31349
 33
       -0.94980
999
Fixed Shading:SHADING GROUP 1 FACE 94
  0
3DFACE
  8
Fixed Shading
 62
  9
 10
       -1.20000
 20
       -0.31349
 30
       -0.94980
 11
       -0.80000
 21
       -0.31749
 31
       -0.94973
 12
       -0.80000
 22
       -0.31349
 32
       -0.94980
 13
       -0.80000
 23
       -0.31349
 33
       -0.94980
999
Fixed Shading:Mir-SHADING GROUP 1 FACE 94
  0
3DFACE
  8
Fixed Shading
 62
  9
 10
       -0.80000
 20
       -0.31349
 30
       -0.94980
 11
       -0.80000
 21
       -0.31749
 31
       -0.94973
 12
       -1.20000
 22
       -0.31349
 32
       -0.94980
 13
       -1.20000
 23
       -0.31349
 33
       -0.94980
999
Fixed Shading:SHADING GROUP 1 FACE 95
  0
3DFACE
  8
Fixed Shading
 62
  9
 10
       -1.20000
 20
       -0.30651
 30
       -0.54986
 11
       -1.20000
 21
       -0.31749
 31
       -0.94973
 12
       -1.20000
 22
       -0.31349
 32
       -0.94980
 13
       -1.20000
 23
       -0.31349
 33
       -0.94980
999
Fixed Shading:Mir-SHADING GROUP 1 FACE 95
  0
3DFACE
  8
Fixed Shading
 62
  9
 10
       -1.20000
 20
       -0.31349
 30
       -0.94980
 11
       -1.20000
 21
       -0.31749
 31
       -0.94973
 12
       -1.20000
 22
       -0.30651
 32
       -0.54986
 13
       -1.20000
 23
       -0.30651
 33
       -0.54986
999
Fixed Shading:SHADING GROUP 1 FACE 96
  0
3DFACE
  8
Fixed Shading
 62
  9
 10
       -0.80000
 20
       -0.30651
 30
       -0.54986
 11
       -1.20000
 21
       -0.31051
 31
       -0.54979
 12
       -1.20000
 22
       -0.30651
 32
       -0.54986
 13
       -1.20000
 23
       -0.30651
 33
       -0.54986
999
Fixed Shading:Mir-SHADING GROUP 1 FACE 96
  0
3DFACE
  8
Fixed Shading
 62
  9
 10
       -1.20000
 20
       -0.30651
 30
       -0.54986
 11
       -1.20000
 21
       -0.31051
 31
       -0.54979
 12
       -0.80000
 22
       -0.30651
 32
       -0.54986
 13
       -0.80000
 23
       -0.30651
 33
       -0.54986
999
Fixed Shading:SHADING GROUP 1 FACE 97
  0
3DFACE
  8
Fixed Shading
 62
  9
 10
       -1.30000
 20
       -0.30651
 30
       -0.54986
 11
       -1.70000
 21
       -0.30651
 31
       -0.54986
 12
       -1.70000
 22
       -0.31349
 32
       -0.94980
 13
       -1.30000
 23
       -0.31349
 33
       -0.94980
999
Fixed Shading:Mir-SHADING GROUP 1 FACE 97
  0
3DFACE
  8
Fixed Shading
 62
  9
 10
       -1.30000
 20
       -0.31349
 30
       -0.94980
 11
       -1.70000
 21
       -0.31349
 31
       -0.94980
 12
       -1.70000
 22
       -0.30651
 32
       -0.54986
 13
       -1.30000
 23
       -0.30651
 33
       -0.54986
999
Fixed Shading:SHADING GROUP 1 FACE 98
  0
3DFACE
  8
Fixed Shading
 62
  9
 10
       -1.30000
 20
       -0.31749
 30
       -0.94973
 11
       -1.70000
 21
       -0.31749
 31
       -0.94973
 12
       -1.70000
 22
       -0.31051
 32
       -0.54979
 13
       -1.30000
 23
       -0.31051
 33
       -0.54979
999
Fixed Shading:Mir-SHADING GROUP 1 FACE 98
  0
3DFACE
  8
Fixed Shading
 62
  9
 10
       -1.30000
 20
       -0.31051
 30
       -0.54979
 11
       -1.70000
 21
       -0.31051
 31
       -0.54979
 12
       -1.70000
 22
       -0.31749
 32
       -0.94973
 13
       -1.30000
 23
       -0.31749
 33
       -0.94973
999
Fixed Shading:SHADING GROUP 1 FACE 99
  0
3DFACE
  8
Fixed Shading
 62
  9
 10
       -1.30000
 20
       -0.31349
 30
       -0.94980
 11
       -1.30000
 21
       -0.31051
 31
       -0.54979
 12
       -1.30000
 22
       -0.30651
 32
       -0.54986
 13
       -1.30000
 23
       -0.30651
 33
       -0.54986
999
Fixed Shading:Mir-SHADING GROUP 1 FACE 99
  0
3DFACE
  8
Fixed Shading
 62
  9
 10
       -1.30000
 20
       -0.30651
 30
       -0.54986
 11
       -1.30000
 21
       -0.31051
 31
       -0.54979
 12
       -1.30000
 22
       -0.31349
 32
       -0.94980
 13
       -1.30000
 23
       -0.31349
 33
       -0.94980
999
Fixed Shading:SHADING GROUP 1 FACE 100
  0
3DFACE
  8
Fixed Shading
 62
  9
 10
       -1.70000
 20
       -0.31349
 30
       -0.94980
 11
       -1.30000
 21
       -0.31749
 31
       -0.94973
 12
       -1.30000
 22
       -0.31349
 32
       -0.94980
 13
       -1.30000
 23
       -0.31349
 33
       -0.94980
999
Fixed Shading:Mir-SHADING GROUP 1 FACE 100
  0
3DFACE
  8
Fixed Shading
 62
  9
 10
       -1.30000
 20
       -0.31349
 30
       -0.94980
 11
       -1.30000
 21
       -0.31749
 31
       -0.94973
 12
       -1.70000
 22
       -0.31349
 32
       -0.94980
 13
       -1.70000
 23
       -0.31349
 33
       -0.94980
999
Fixed Shading:SHADING GROUP 1 FACE 101
  0
3DFACE
  8
Fixed Shading
 62
  9
 10
       -1.70000
 20
       -0.30651
 30
       -0.54986
 11
       -1.70000
 21
       -0.31749
 31
       -0.94973
 12
       -1.70000
 22
       -0.31349
 32
       -0.94980
 13
       -1.70000
 23
       -0.31349
 33
       -0.94980
999
Fixed Shading:Mir-SHADING GROUP 1 FACE 101
  0
3DFACE
  8
Fixed Shading
 62
  9
 10
       -1.70000
 20
       -0.31349
 30
       -0.94980
 11
       -1.70000
 21
       -0.31749
 31
       -0.94973
 12
       -1.70000
 22
       -0.30651
 32
       -0.54986
 13
       -1.70000
 23
       -0.30651
 33
       -0.54986
999
Fixed Shading:SHADING GROUP 1 FACE 102
  0
3DFACE
  8
Fixed Shading
 62
  9
 10
       -1.30000
 20
       -0.30651
 30
       -0.54986
 11
       -1.70000
 21
       -0.31051
 31
       -0.54979
 12
       -1.70000
 22
       -0.30651
 32
       -0.54986
 13
       -1.70000
 23
       -0.30651
 33
       -0.54986
999
Fixed Shading:Mir-SHADING GROUP 1 FACE 102
  0
3DFACE
  8
Fixed Shading
 62
  9
 10
       -1.70000
 20
       -0.30651
 30
       -0.54986
 11
       -1.70000
 21
       -0.31051
 31
       -0.54979
 12
       -1.30000
 22
       -0.30651
 32
       -0.54986
 13
       -1.30000
 23
       -0.30651
 33
       -0.54986
999
Fixed Shading:SHADING GROUP 1 FACE 103
  0
3DFACE
  8
Fixed Shading
 62
  9
 10
       -1.80000
 20
       -0.30651
 30
       -0.54986
 11
       -2.20000
 21
       -0.30651
 31
       -0.54986
 12
       -2.20000
 22
       -0.31349
 32
       -0.94980
 13
       -1.80000
 23
       -0.31349
 33
       -0.94980
999
Fixed Shading:Mir-SHADING GROUP 1 FACE 103
  0
3DFACE
  8
Fixed Shading
 62
  9
 10
       -1.80000
 20
       -0.31349
 30
       -0.94980
 11
       -2.20000
 21
       -0.31349
 31
       -0.94980
 12
       -2.20000
 22
       -0.30651
 32
       -0.54986
 13
       -1.80000
 23
       -0.30651
 33
       -0.54986
999
Fixed Shading:SHADING GROUP 1 FACE 104
  0
3DFACE
  8
Fixed Shading
 62
  9
 10
       -1.80000
 20
       -0.31749
 30
       -0.94973
 11
       -2.20000
 21
       -0.31749
 31
       -0.94973
 12
       -2.20000
 22
       -0.31051
 32
       -0.54979
 13
       -1.80000
 23
       -0.31051
 33
       -0.54979
999
Fixed Shading:Mir-SHADING GROUP 1 FACE 104
  0
3DFACE
  8
Fixed Shading
 62
  9
 10
       -1.80000
 20
       -0.31051
 30
       -0.54979
 11
       -2.20000
 21
       -0.31051
 31
       -0.54979
 12
       -2.20000
 22
       -0.31749
 32
       -0.94973
 13
       -1.80000
 23
       -0.31749
 33
       -0.94973
999
Fixed Shading:SHADING GROUP 1 FACE 105
  0
3DFACE
  8
Fixed Shading
 62
  9
 10
       -1.80000
 20
       -0.31349
 30
       -0.94980
 11
       -1.80000
 21
       -0.31051
 31
       -0.54979
 12
       -1.80000
 22
       -0.30651
 32
       -0.54986
 13
       -1.80000
 23
       -0.30651
 33
       -0.54986
999
Fixed Shading:Mir-SHADING GROUP 1 FACE 105
  0
3DFACE
  8
Fixed Shading
 62
  9
 10
       -1.80000
 20
       -0.30651
 30
       -0.54986
 11
       -1.80000
 21
       -0.31051
 31
       -0.54979
 12
       -1.80000
 22
       -0.31349
 32
       -0.94980
 13
       -1.80000
 23
       -0.31349
 33
       -0.94980
999
Fixed Shading:SHADING GROUP 1 FACE 106
  0
3DFACE
  8
Fixed Shading
 62
  9
 10
       -2.20000
 20
       -0.31349
 30
       -0.94980
 11
       -1.80000
 21
       -0.31749
 31
       -0.94973
 12
       -1.80000
 22
       -0.31349
 32
       -0.94980
 13
       -1.80000
 23
       -0.31349
 33
       -0.94980
999
Fixed Shading:Mir-SHADING GROUP 1 FACE 106
  0
3DFACE
  8
Fixed Shading
 62
  9
 10
       -1.80000
 20
       -0.31349
 30
       -0.94980
 11
       -1.80000
 21
       -0.31749
 31
       -0.94973
 12
       -2.20000
 22
       -0.31349
 32
       -0.94980
 13
       -2.20000
 23
       -0.31349
 33
       -0.94980
999
Fixed Shading:SHADING GROUP 1 FACE 107
  0
3DFACE
  8
Fixed Shading
 62
  9
 10
       -2.20000
 20
       -0.30651
 30
       -0.54986
 11
       -2.20000
 21
       -0.31749
 31
       -0.94973
 12
       -2.20000
 22
       -0.31349
 32
       -0.94980
 13
       -2.20000
 23
       -0.31349
 33
       -0.94980
999
Fixed Shading:Mir-SHADING GROUP 1 FACE 107
  0
3DFACE
  8
Fixed Shading
 62
  9
 10
       -2.20000
 20
       -0.31349
 30
       -0.94980
 11
       -2.20000
 21
       -0.31749
 31
       -0.94973
 12
       -2.20000
 22
       -0.30651
 32
       -0.54986
 13
       -2.20000
 23
       -0.30651
 33
       -0.54986
999
Fixed Shading:SHADING GROUP 1 FACE 108
  0
3DFACE
  8
Fixed Shading
 62
  9
 10
       -1.80000
 20
       -0.30651
 30
       -0.54986
 11
       -2.20000
 21
       -0.31051
 31
       -0.54979
 12
       -2.20000
 22
       -0.30651
 32
       -0.54986
 13
       -2.20000
 23
       -0.30651
 33
       -0.54986
999
Fixed Shading:Mir-SHADING GROUP 1 FACE 108
  0
3DFACE
  8
Fixed Shading
 62
  9
 10
       -2.20000
 20
       -0.30651
 30
       -0.54986
 11
       -2.20000
 21
       -0.31051
 31
       -0.54979
 12
       -1.80000
 22
       -0.30651
 32
       -0.54986
 13
       -1.80000
 23
       -0.30651
 33
       -0.54986
999
Fixed Shading:SHADING GROUP 1 FACE 109
  0
3DFACE
  8
Fixed Shading
 62
  9
 10
        2.20000
 20
       -0.16565
 30
       -0.10151
 11
        1.80000
 21
       -0.16565
 31
       -0.10151
 12
        1.80000
 22
       -0.44849
 32
       -0.38435
 13
        2.20000
 23
       -0.44849
 33
       -0.38435
999
Fixed Shading:Mir-SHADING GROUP 1 FACE 109
  0
3DFACE
  8
Fixed Shading
 62
  9
 10
        2.20000
 20
       -0.44849
 30
       -0.38435
 11
        1.80000
 21
       -0.44849
 31
       -0.38435
 12
        1.80000
 22
       -0.16565
 32
       -0.10151
 13
        2.20000
 23
       -0.16565
 33
       -0.10151
999
Fixed Shading:SHADING GROUP 1 FACE 110
  0
3DFACE
  8
Fixed Shading
 62
  9
 10
        2.20000
 20
       -0.45132
 30
       -0.38152
 11
        1.80000
 21
       -0.45132
 31
       -0.38152
 12
        1.80000
 22
       -0.16848
 32
       -0.09868
 13
        2.20000
 23
       -0.16848
 33
       -0.09868
999
Fixed Shading:Mir-SHADING GROUP 1 FACE 110
  0
3DFACE
  8
Fixed Shading
[...]
 11
       -0.20000
 21
       -0.31051
 31
        1.45021
 12
       -0.20000
 22
       -0.30651
 32
        1.45014
 13
       -0.20000
 23
       -0.30651
 33
        1.45014
999
Fixed Shading:Mir-SHADING GROUP 1 FACE 300
  0
3DFACE
  8
Fixed Shading
 62
  9
 10
       -0.20000
 20
       -0.30651
 30
        1.45014
 11
       -0.20000
 21
       -0.31051
 31
        1.45021
 12
        0.20000
 22
       -0.30651
 32
        1.45014
 13
        0.20000
 23
       -0.30651
 33
        1.45014
999
Fixed Shading:SHADING GROUP 1 FACE 301
  0
3DFACE
  8
Fixed Shading
 62
  9
 10
       -0.30000
 20
       -0.30651
 30
        1.45014
 11
       -0.70000
 21
       -0.30651
 31
        1.45014
 12
       -0.70000
 22
       -0.31349
 32
        1.05020
 13
       -0.30000
 23
       -0.31349
 33
        1.05020
999
Fixed Shading:Mir-SHADING GROUP 1 FACE 301
  0
3DFACE
  8
Fixed Shading
 62
  9
 10
       -0.30000
 20
       -0.31349
 30
        1.05020
 11
       -0.70000
 21
       -0.31349
 31
        1.05020
 12
       -0.70000
 22
       -0.30651
 32
        1.45014
 13
       -0.30000
 23
       -0.30651
 33
        1.45014
999
Fixed Shading:SHADING GROUP 1 FACE 302
  0
3DFACE
  8
Fixed Shading
 62
  9
 10
       -0.30000
 20
       -0.31749
 30
        1.05027
 11
       -0.70000
 21
       -0.31749
 31
        1.05027
 12
       -0.70000
 22
       -0.31051
 32
        1.45021
 13
       -0.30000
 23
       -0.31051
 33
        1.45021
999
Fixed Shading:Mir-SHADING GROUP 1 FACE 302
  0
3DFACE
  8
Fixed Shading
 62
  9
 10
       -0.30000
 20
       -0.31051
 30
        1.45021
 11
       -0.70000
 21
       -0.31051
 31
        1.45021
 12
       -0.70000
 22
       -0.31749
 32
        1.05027
 13
       -0.30000
 23
       -0.31749
 33
        1.05027
999
Fixed Shading:SHADING GROUP 1 FACE 303
  0
3DFACE
  8
Fixed Shading
 62
  9
 10
       -0.30000
 20
       -0.31349
 30
        1.05020
 11
       -0.30000
 21
       -0.31051
 31
        1.45021
 12
       -0.30000
 22
       -0.30651
 32
        1.45014
 13
       -0.30000
 23
       -0.30651
 33
        1.45014
999
Fixed Shading:Mir-SHADING GROUP 1 FACE 303
  0
3DFACE
  8
Fixed Shading
 62
  9
 10
       -0.30000
 20
       -0.30651
 30
        1.45014
 11
       -0.30000
 21
       -0.31051
 31
        1.45021
 12
       -0.30000
 22
       -0.31349
 32
        1.05020
 13
       -0.30000
 23
       -0.31349
 33
        1.05020
999
Fixed Shading:SHADING GROUP 1 FACE 304
  0
3DFACE
  8
Fixed Shading
 62
  9
 10
       -0.70000
 20
       -0.31349
 30
        1.05020
 11
       -0.30000
 21
       -0.31749
 31
        1.05027
 12
       -0.30000
 22
       -0.31349
 32
        1.05020
 13
       -0.30000
 23
       -0.31349
 33
        1.05020
999
Fixed Shading:Mir-SHADING GROUP 1 FACE 304
  0
3DFACE
  8
Fixed Shading
 62
  9
 10
       -0.30000
 20
       -0.31349
 30
        1.05020
 11
       -0.30000
 21
       -0.31749
 31
        1.05027
 12
       -0.70000
 22
       -0.31349
 32
        1.05020
 13
       -0.70000
 23
       -0.31349
 33
        1.05020
999
Fixed Shading:SHADING GROUP 1 FACE 305
  0
3DFACE
  8
Fixed Shading
 62
  9
 10
       -0.70000
 20
       -0.30651
 30
        1.45014
 11
       -0.70000
 21
       -0.31749
 31
        1.05027
 12
       -0.70000
 22
       -0.31349
 32
        1.05020
 13
       -0.70000
 23
       -0.31349
 33
        1.05020
999
Fixed Shading:Mir-SHADING GROUP 1 FACE 305
  0
3DFACE
  8
Fixed Shading
 62
  9
 10
       -0.70000
 20
       -0.31349
 30
        1.05020
 11
       -0.70000
 21
       -0.31749
 31
        1.05027
 12
       -0.70000
 22
       -0.30651
 32
        1.45014
 13
       -0.70000
 23
       -0.30651
 33
        1.45014
999
Fixed Shading:SHADING GROUP 1 FACE 306
  0
3DFACE
  8
Fixed Shading
 62
  9
 10
       -0.30000
 20
       -0.30651
 30
        1.45014
 11
       -0.70000
 21
       -0.31051
 31
        1.45021
 12
       -0.70000
 22
       -0.30651
 32
        1.45014
 13
       -0.70000
 23
       -0.30651
 33
        1.45014
999
Fixed Shading:Mir-SHADING GROUP 1 FACE 306
  0
3DFACE
  8
Fixed Shading
 62
  9
 10
       -0.70000
 20
       -0.30651
 30
        1.45014
 11
       -0.70000
 21
       -0.31051
 31
        1.45021
 12
       -0.30000
 22
       -0.30651
 32
        1.45014
 13
       -0.30000
 23
       -0.30651
 33
        1.45014
999
Fixed Shading:SHADING GROUP 1 FACE 307
  0
3DFACE
  8
Fixed Shading
 62
  9
 10
       -0.80000
 20
       -0.30651
 30
        1.45014
 11
       -1.20000
 21
       -0.30651
 31
        1.45014
 12
       -1.20000
 22
       -0.31349
 32
        1.05020
 13
       -0.80000
 23
       -0.31349
 33
        1.05020
999
Fixed Shading:Mir-SHADING GROUP 1 FACE 307
  0
3DFACE
  8
Fixed Shading
 62
  9
 10
       -0.80000
 20
       -0.31349
 30
        1.05020
 11
       -1.20000
 21
       -0.31349
 31
        1.05020
 12
       -1.20000
 22
       -0.30651
 32
        1.45014
 13
       -0.80000
 23
       -0.30651
 33
        1.45014
999
Fixed Shading:SHADING GROUP 1 FACE 308
  0
3DFACE
  8
Fixed Shading
 62
  9
 10
       -0.80000
 20
       -0.31749
 30
        1.05027
 11
       -1.20000
 21
       -0.31749
 31
        1.05027
 12
       -1.20000
 22
       -0.31051
 32
        1.45021
 13
       -0.80000
 23
       -0.31051
 33
        1.45021
999
Fixed Shading:Mir-SHADING GROUP 1 FACE 308
  0
3DFACE
  8
Fixed Shading
 62
  9
 10
       -0.80000
 20
       -0.31051
 30
        1.45021
 11
       -1.20000
 21
       -0.31051
 31
        1.45021
 12
       -1.20000
 22
       -0.31749
 32
        1.05027
 13
       -0.80000
 23
       -0.31749
 33
        1.05027
999
Fixed Shading:SHADING GROUP 1 FACE 309
  0
3DFACE
  8
Fixed Shading
 62
  9
 10
       -0.80000
 20
       -0.31349
 30
        1.05020
 11
       -0.80000
 21
       -0.31051
 31
        1.45021
 12
       -0.80000
 22
       -0.30651
 32
        1.45014
 13
       -0.80000
 23
       -0.30651
 33
        1.45014
999
Fixed Shading:Mir-SHADING GROUP 1 FACE 309
  0
3DFACE
  8
Fixed Shading
 62
  9
 10
       -0.80000
 20
       -0.30651
 30
        1.45014
 11
       -0.80000
 21
       -0.31051
 31
        1.45021
 12
       -0.80000
 22
       -0.31349
 32
        1.05020
 13
       -0.80000
 23
       -0.31349
 33
        1.05020
999
Fixed Shading:SHADING GROUP 1 FACE 310
  0
3DFACE
  8
Fixed Shading
 62
  9
 10
       -1.20000
 20
       -0.31349
 30
        1.05020
 11
       -0.80000
 21
       -0.31749
 31
        1.05027
 12
       -0.80000
 22
       -0.31349
 32
        1.05020
 13
       -0.80000
 23
       -0.31349
 33
        1.05020
999
Fixed Shading:Mir-SHADING GROUP 1 FACE 310
  0
3DFACE
  8
Fixed Shading
 62
  9
 10
       -0.80000
 20
       -0.31349
 30
        1.05020
 11
       -0.80000
 21
       -0.31749
 31
        1.05027
 12
       -1.20000
 22
       -0.31349
 32
        1.05020
 13
       -1.20000
 23
       -0.31349
 33
        1.05020
999
Fixed Shading:SHADING GROUP 1 FACE 311
  0
3DFACE
  8
Fixed Shading
 62
  9
 10
       -1.20000
 20
       -0.30651
 30
        1.45014
 11
       -1.20000
 21
       -0.31749
 31
        1.05027
 12
       -1.20000
 22
       -0.31349
 32
        1.05020
 13
       -1.20000
 23
       -0.31349
 33
        1.05020
999
Fixed Shading:Mir-SHADING GROUP 1 FACE 311
  0
3DFACE
  8
Fixed Shading
 62
  9
 10
       -1.20000
 20
       -0.31349
 30
        1.05020
 11
       -1.20000
 21
       -0.31749
 31
        1.05027
 12
       -1.20000
 22
       -0.30651
 32
        1.45014
 13
       -1.20000
 23
       -0.30651
 33
        1.45014
999
Fixed Shading:SHADING GROUP 1 FACE 312
  0
3DFACE
  8
Fixed Shading
 62
  9
 10
       -0.80000
 20
       -0.30651
 30
        1.45014
 11
       -1.20000
 21
       -0.31051
 31
        1.45021
 12
       -1.20000
 22
       -0.30651
 32
        1.45014
 13
       -1.20000
 23
       -0.30651
 33
        1.45014
999
Fixed Shading:Mir-SHADING GROUP 1 FACE 312
  0
3DFACE
  8
Fixed Shading
 62
  9
 10
       -1.20000
 20
       -0.30651
 30
        1.45014
 11
       -1.20000
 21
       -0.31051
 31
        1.45021
 12
       -0.80000
 22
       -0.30651
 32
        1.45014
 13
       -0.80000
 23
       -0.30651
 33
        1.45014
999
Fixed Shading:SHADING GROUP 1 FACE 313
  0
3DFACE
  8
Fixed Shading
 62
  9
 10
       -1.30000
 20
       -0.30651
 30
        1.45014
 11
       -1.70000
 21
       -0.30651
 31
        1.45014
 12
       -1.70000
 22
       -0.31349
 32
        1.05020
 13
       -1.30000
 23
       -0.31349
 33
        1.05020
999
Fixed Shading:Mir-SHADING GROUP 1 FACE 313
  0
3DFACE
  8
Fixed Shading
 62
  9
 10
       -1.30000
 20
       -0.31349
 30
        1.05020
 11
       -1.70000
 21
       -0.31349
 31
        1.05020
 12
       -1.70000
 22
       -0.30651
 32
        1.45014
 13
       -1.30000
 23
       -0.30651
 33
        1.45014
999
Fixed Shading:SHADING GROUP 1 FACE 314
  0
3DFACE
  8
Fixed Shading
 62
  9
 10
       -1.30000
 20
       -0.31749
 30
        1.05027
 11
       -1.70000
 21
       -0.31749
 31
        1.05027
 12
       -1.70000
 22
       -0.31051
 32
        1.45021
 13
       -1.30000
 23
       -0.31051
 33
        1.45021
999
Fixed Shading:Mir-SHADING GROUP 1 FACE 314
  0
3DFACE
  8
Fixed Shading
 62
  9
 10
       -1.30000
 20
       -0.31051
 30
        1.45021
 11
       -1.70000
 21
       -0.31051
 31
        1.45021
 12
       -1.70000
 22
       -0.31749
 32
        1.05027
 13
       -1.30000
 23
       -0.31749
 33
        1.05027
999
Fixed Shading:SHADING GROUP 1 FACE 315
  0
3DFACE
  8
Fixed Shading
 62
  9
 10
       -1.30000
 20
       -0.31349
 30
        1.05020
 11
       -1.30000
 21
       -0.31051
 31
        1.45021
 12
       -1.30000
 22
       -0.30651
 32
        1.45014
 13
       -1.30000
 23
       -0.30651
 33
        1.45014
999
Fixed Shading:Mir-SHADING GROUP 1 FACE 315
  0
3DFACE
  8
Fixed Shading
 62
  9
 10
       -1.30000
 20
       -0.30651
 30
        1.45014
 11
       -1.30000
 21
       -0.31051
 31
        1.45021
 12
       -1.30000
 22
       -0.31349
 32
        1.05020
 13
       -1.30000
 23
       -0.31349
 33
        1.05020
999
Fixed Shading:SHADING GROUP 1 FACE 316
  0
3DFACE
  8
Fixed Shading
 62
  9
 10
       -1.70000
 20
       -0.31349
 30
        1.05020
 11
       -1.30000
 21
       -0.31749
 31
        1.05027
 12
       -1.30000
 22
       -0.31349
 32
        1.05020
 13
       -1.30000
 23
       -0.31349
 33
        1.05020
999
Fixed Shading:Mir-SHADING GROUP 1 FACE 316
  0
3DFACE
  8
Fixed Shading
 62
  9
 10
       -1.30000
 20
       -0.31349
 30
        1.05020
 11
       -1.30000
 21
       -0.31749
 31
        1.05027
 12
       -1.70000
 22
       -0.31349
 32
        1.05020
 13
       -1.70000
 23
       -0.31349
 33
        1.05020
999
Fixed Shading:SHADING GROUP 1 FACE 317
  0
3DFACE
  8
Fixed Shading
 62
  9
 10
       -1.70000
 20
       -0.30651
 30
        1.45014
 11
       -1.70000
 21
       -0.31749
 31
        1.05027
 12
       -1.70000
 22
       -0.31349
 32
        1.05020
 13
       -1.70000
 23
       -0.31349
 33
        1.05020
999
Fixed Shading:Mir-SHADING GROUP 1 FACE 317
  0
3DFACE
  8
Fixed Shading
 62
  9
 10
       -1.70000
 20
       -0.31349
 30
        1.05020
 11
       -1.70000
 21
       -0.31749
 31
        1.05027
 12
       -1.70000
 22
       -0.30651
 32
        1.45014
 13
       -1.70000
 23
       -0.30651
 33
        1.45014
999
Fixed Shading:SHADING GROUP 1 FACE 318
  0
3DFACE
  8
Fixed Shading
 62
  9
 10
       -1.30000
 20
       -0.30651
 30
        1.45014
 11
       -1.70000
 21
       -0.31051
 31
        1.45021
 12
       -1.70000
 22
       -0.30651
 32
        1.45014
 13
       -1.70000
 23
       -0.30651
 33
        1.45014
999
Fixed Shading:Mir-SHADING GROUP 1 FACE 318
  0
3DFACE
  8
Fixed Shading
 62
  9
 10
       -1.70000
 20
       -0.30651
 30
        1.45014
 11
       -1.70000
 21
       -0.31051
 31
        1.45021
 12
       -1.30000
 22
       -0.30651
 32
        1.45014
 13
       -1.30000
 23
       -0.30651
 33
        1.45014
999
Fixed Shading:SHADING GROUP 1 FACE 319
  0
3DFACE
  8
Fixed Shading
 62
  9
 10
       -1.80000
 20
       -0.30651
 30
        1.45014
 11
       -2.20000
 21
       -0.30651
 31
        1.45014
 12
       -2.20000
 22
       -0.31349
 32
        1.05020
 13
       -1.80000
 23
       -0.31349
 33
        1.05020
999
Fixed Shading:Mir-SHADING GROUP 1 FACE 319
  0
3DFACE
  8
Fixed Shading
 62
  9
 10
       -1.80000
 20
       -0.31349
 30
        1.05020
 11
       -2.20000
 21
       -0.31349
 31
        1.05020
 12
       -2.20000
 22
       -0.30651
 32
        1.45014
 13
       -1.80000
 23
       -0.30651
 33
        1.45014
999
Fixed Shading:SHADING GROUP 1 FACE 320
  0
3DFACE
  8
Fixed Shading
 62
  9
 10
       -1.80000
 20
       -0.31749
 30
        1.05027
 11
       -2.20000
 21
       -0.31749
 31
        1.05027
 12
       -2.20000
 22
       -0.31051
 32
        1.45021
 13
       -1.80000
 23
       -0.31051
 33
        1.45021
999
Fixed Shading:Mir-SHADING GROUP 1 FACE 320
  0
3DFACE
  8
Fixed Shading
 62
  9
 10
       -1.80000
 20
       -0.31051
 30
        1.45021
 11
       -2.20000
 21
       -0.31051
 31
        1.45021
 12
       -2.20000
 22
       -0.31749
 32
        1.05027
 13
       -1.80000
 23
       -0.31749
 33
        1.05027
999
Fixed Shading:SHADING GROUP 1 FACE 321
  0
3DFACE
  8
Fixed Shading
 62
  9
 10
       -1.80000
 20
       -0.31349
 30
        1.05020
 11
       -1.80000
 21
       -0.31051
 31
        1.45021
 12
       -1.80000
 22
       -0.30651
 32
        1.45014
 13
       -1.80000
 23
       -0.30651
 33
        1.45014
999
Fixed Shading:Mir-SHADING GROUP 1 FACE 321
  0
3DFACE
  8
Fixed Shading
 62
  9
 10
       -1.80000
 20
       -0.30651
 30
        1.45014
 11
       -1.80000
 21
       -0.31051
 31
        1.45021
 12
       -1.80000
 22
       -0.31349
 32
        1.05020
 13
       -1.80000
 23
       -0.31349
 33
        1.05020
999
Fixed Shading:SHADING GROUP 1 FACE 322
  0
3DFACE
  8
Fixed Shading
 62
  9
 10
       -2.20000
 20
       -0.31349
 30
        1.05020
 11
       -1.80000
 21
       -0.31749
 31
        1.05027
 12
       -1.80000
 22
       -0.31349
 32
        1.05020
 13
       -1.80000
 23
       -0.31349
 33
        1.05020
999
Fixed Shading:Mir-SHADING GROUP 1 FACE 322
  0
3DFACE
  8
Fixed Shading
 62
  9
 10
       -1.80000
 20
       -0.31349
 30
        1.05020
 11
       -1.80000
 21
       -0.31749
 31
        1.05027
 12
       -2.20000
 22
       -0.31349
 32
        1.05020
 13
       -2.20000
 23
       -0.31349
 33
        1.05020
999
Fixed Shading:SHADING GROUP 1 FACE 323
  0
3DFACE
  8
Fixed Shading
 62
  9
 10
       -2.20000
 20
       -0.30651
 30
        1.45014
 11
       -2.20000
 21
       -0.31749
 31
        1.05027
 12
       -2.20000
 22
       -0.31349
 32
        1.05020
 13
       -2.20000
 23
       -0.31349
 33
        1.05020
999
Fixed Shading:Mir-SHADING GROUP 1 FACE 323
  0
3DFACE
  8
Fixed Shading
 62
  9
 10
       -2.20000
 20
       -0.31349
 30
        1.05020
 11
       -2.20000
 21
       -0.31749
 31
        1.05027
 12
       -2.20000
 22
       -0.30651
 32
        1.45014
 13
       -2.20000
 23
       -0.30651
 33
        1.45014
999
Fixed Shading:SHADING GROUP 1 FACE 324
  0
3DFACE
  8
Fixed Shading
 62
  9
 10
       -1.80000
 20
       -0.30651
 30
        1.45014
 11
       -2.20000
 21
       -0.31051
 31
        1.45021
 12
       -2.20000
 22
       -0.30651
 32
        1.45014
 13
       -2.20000
 23
       -0.30651
 33
        1.45014
999
Fixed Shading:Mir-SHADING GROUP 1 FACE 324
  0
3DFACE
  8
Fixed Shading
 62
  9
 10
       -2.20000
 20
       -0.30651
 30
        1.45014
 11
       -2.20000
 21
       -0.31051
 31
        1.45021
 12
       -1.80000
 22
       -0.30651
 32
        1.45014
 13
       -1.80000
 23
       -0.30651
 33
        1.45014
999
ZONE1:ZONE1_FACE_1
  0
3DFACE
  8
ZONE1
 62
 43
 10
        2.45000
 20
        7.00000
 30
        1.55000
 11
        2.45000
 21
        7.00000
 31
       -1.55000
 12
       -2.45000
 22
        7.00000
 32
       -1.55000
 13
       -2.45000
 23
        7.00000
 33
        1.55000
999
ZONE1:ZONE1_FACE_2
  0
3DFACE
  8
ZONE1
 62
 43
 10
        2.45000
 20
        0.00000
 30
        1.55000
 11
        2.45000
 21
        0.00000
 31
       -1.55000
 12
        2.45000
 22
        7.00000
 32
       -1.55000
 13
        2.45000
 23
        7.00000
 33
        1.55000
999
ZONE1:ZONE1_FACE_3
  0
3DFACE
  8
ZONE1
 62
 43
 10
       -2.45000
 20
        7.00000
 30
        1.55000
 11
       -2.45000
 21
        7.00000
 31
       -1.55000
 12
       -2.45000
 22
        0.00000
 32
       -1.55000
 13
       -2.45000
 23
        0.00000
 33
        1.55000
999
ZONE1:ZONE1_FACE_6
  0
3DFACE
  8
ZONE1
 62
 43
 10
       -2.45000
 20
        0.00000
 30
        1.55000
 11
       -2.45000
 21
        0.00000
 31
       -1.55000
 12
        2.45000
 22
        0.00000
 32
       -1.55000
 13
        2.45000
 23
        0.00000
 33
        1.55000
999
ZONE1:ZONE1_FACE_6_WINDOW_1
  0
3DFACE
  8
ZONE1
 62
143
 10
       -2.25000
 20
        0.00000
 30
        1.50000
 11
       -2.25000
 21
        0.00000
 31
       -1.50000
 12
        2.25000
 22
        0.00000
 32
       -1.50000
 13
        2.25000
 23
        0.00000
 33
        1.50000
999
ZONE1:ZONE1_FACE_5
  0
3DFACE
  8
ZONE1
 62
  8
 10
        2.45000
 20
        7.00000
 30
       -1.55000
 11
        2.45000
 21
        0.00000
 31
       -1.55000
 12
       -2.45000
 22
        0.00000
 32
       -1.55000
 13
       -2.45000
 23
        7.00000
 33
       -1.55000
999
ZONE1:ZONE1_FACE_4
  0
3DFACE
  8
ZONE1
 62
 15
 10
       -2.45000
 20
        7.00000
 30
        1.55000
 11
       -2.45000
 21
        0.00000
 31
        1.55000
 12
        2.45000
 22
        0.00000
 32
        1.55000
 13
        2.45000
 23
        7.00000
 33
        1.55000
999
ZONE1:DayRefPt:1
  0
CIRCLE
  8
ZONE1
 62
 10
 10
        0.00000
 20
        3.50000
 30
       -0.75000
 40
        0.20000
  0
ENDSEC
  0
EOF
