  0
SECTION
  2
ENTITIES
999
DXF created from EnergyPlus
999
Program Version,EnergyPlus-Windows-OMP-32 7.2.0.006, YMD=2014.05.14 19:19
999
Polygon Action,ThickPolyline
999
Color Scheme,Default
999
Text - True North
  0
TEXT
  8
1
  6
Continuous
 62
  3
 10
      -13.45000
 20
        2.49889
 30
        0.10000
 40
 .25
  1
True North
 41
 0.0
  7
MONOTXT
210
0.0
220
0.0
230
1.0
999
Text - Building Title
  0
TEXT
  8
1
  6
Continuous
 62
  3
 10
      -16.45000
 20
       -1.50111
 30
        0.10000
 40
 .4
  1
Building - BUILDING
 41
 0.0
  7
MONOTXT
210
0.0
220
0.0
230
1.0
999
North Arrow Stem
  0
3DFACE
  8
1
 62
  3
 10
      -12.45000
 20
        2.49889
 30
        0.10000
 11
      -12.45000
 21
        2.49889
 31
        0.00000
 12
      -12.45000
 22
       -0.50111
 32
        0.00000
 13
      -12.45000
 23
       -0.50111
 33
        0.10000
999
North Arrow Head 1
  0
3DFACE
  8
1
 62
  3
 10
      -12.45000
 20
        2.49889
 30
        0.10000
 11
      -12.45000
 21
        2.49889
 31
        0.00000
 12
      -12.95000
 22
        1.63287
 32
        0.00000
 13
      -12.95000
 23
        1.63287
 33
        0.10000
999
North Arrow Head 2
  0
3DFACE
  8
1
 62
  3
 10
      -12.45000
 20
        2.49889
 30
        0.10000
 11
      -12.45000
 21
        2.49889
 31
        0.00000
 12
      -11.95000
 22
        1.63287
 32
        0.00000
 13
      -11.95000
 23
        1.63287
 33
        0.10000
999
North Arrow Side 1
  0
3DFACE
  8
1
 62
  3
 10
      -12.95000
 20
        3.99889
 30
        0.10000
 11
      -12.95000
 21
        3.99889
 31
        0.00000
 12
      -12.95000
 22
        2.99889
 32
        0.00000
 13
      -12.95000
 23
        2.99889
 33
        0.10000
999
North Arrow Side 2
  0
3DFACE
  8
1
 62
  3
 10
      -12.95000
 20
        3.99889
 30
        0.10000
 11
      -12.95000
 21
        3.99889
 31
        0.00000
 12
      -11.95000
 22
        2.99889
 32
        0.00000
 13
      -11.95000
 23
        2.99889
 33
        0.10000
999
North Arrow Side 3
  0
3DFACE
  8
1
 62
  3
 10
      -11.95000
 20
        3.99889
 30
        0.10000
 11
      -11.95000
 21
        3.99889
 31
        0.00000
 12
      -11.95000
 22
        2.99889
 32
        0.00000
 13
      -11.95000
 23
        2.99889
 33
        0.10000
999
Zone Names
999
Zone=1:ZONE1
999
Fixed Shading:SHADING GROUP 1 FACE 1
  0
3DFACE
  8
Fixed Shading
 62
  9
 10
        2.19060
 20
       -0.35792
 30
       -1.04896
 11
        1.80423
 21
       -0.25441
 31
       -1.05077
 12
        1.80423
 22
       -0.26139
 32
       -1.45070
 13
        2.19060
 23
       -0.36490
 33
       -1.44890
999
Fixed Shading:Mir-SHADING GROUP 1 FACE 1
  0
3DFACE
  8
Fixed Shading
 62
  9
 10
        2.19060
 20
       -0.36490
 30
       -1.44890
 11
        1.80423
 21
       -0.26139
 31
       -1.45070
 12
        1.80423
 22
       -0.25441
 32
       -1.05077
 13
        2.19060
 23
       -0.35792
 33
       -1.04896
999
Fixed Shading:SHADING GROUP 1 FACE 2
  0
3DFACE
  8
Fixed Shading
 62
  9
 10
        2.18956
 20
       -0.36877
 30
       -1.44883
 11
        1.80319
 21
       -0.26526
 31
       -1.45064
 12
        1.80319
 22
       -0.25827
 32
       -1.05070
 13
        2.18956
 23
       -0.36179
 33
       -1.04889
999
Fixed Shading:Mir-SHADING GROUP 1 FACE 2
  0
3DFACE
  8
Fixed Shading
 62
  9
 10
        2.18956
 20
       -0.36179
 30
       -1.04889
 11
        1.80319
 21
       -0.25827
 31
       -1.05070
 12
        1.80319
 22
       -0.26526
 32
       -1.45064
 13
        2.18956
 23
       -0.36877
 33
       -1.44883
999
Fixed Shading:SHADING GROUP 1 FACE 3
  0
3DFACE
  8
Fixed Shading
 62
  9
 10
        2.19060
 20
       -0.36490
 30
       -1.44890
 11
        2.18956
 21
       -0.36179
 31
       -1.04889
 12
        2.19060
 22
       -0.35792
 32
       -1.04896
 13
        2.19060
 23
       -0.35792
 33
       -1.04896
999
Fixed Shading:Mir-SHADING GROUP 1 FACE 3
  0
3DFACE
  8
Fixed Shading
 62
  9
 10
        2.19060
 20
       -0.35792
 30
       -1.04896
 11
        2.18956
 21
       -0.36179
 31
       -1.04889
 12
        2.19060
 22
       -0.36490
 32
       -1.44890
 13
        2.19060
 23
       -0.36490
 33
       -1.44890
999
Fixed Shading:SHADING GROUP 1 FACE 4
  0
3DFACE
  8
Fixed Shading
 62
  9
 10
        1.80423
 20
       -0.26139
 30
       -1.45070
 11
        2.18956
 21
       -0.36877
 31
       -1.44883
 12
        2.19060
 22
       -0.36490
 32
       -1.44890
 13
        2.19060
 23
       -0.36490
 33
       -1.44890
999
Fixed Shading:Mir-SHADING GROUP 1 FACE 4
  0
3DFACE
  8
Fixed Shading
 62
  9
 10
        2.19060
 20
       -0.36490
 30
       -1.44890
 11
        2.18956
 21
       -0.36877
 31
       -1.44883
 12
        1.80423
 22
       -0.26139
 32
       -1.45070
 13
        1.80423
 23
       -0.26139
 33
       -1.45070
999
Fixed Shading:SHADING GROUP 1 FACE 5
  0
3DFACE
  8
Fixed Shading
 62
  9
 10
        1.80423
 20
       -0.25441
 30
       -1.05077
 11
        1.80319
 21
       -0.26526
 31
       -1.45064
 12
        1.80423
 22
       -0.26139
 32
       -1.45070
 13
        1.80423
 23
       -0.26139
 33
       -1.45070
999
Fixed Shading:Mir-SHADING GROUP 1 FACE 5
  0
3DFACE
  8
Fixed Shading
 62
  9
 10
        1.80423
 20
       -0.26139
 30
       -1.45070
 11
        1.80319
 21
       -0.26526
 31
       -1.45064
 12
        1.80423
 22
       -0.25441
 32
       -1.05077
 13
        1.80423
 23
       -0.25441
 33
       -1.05077
999
Fixed Shading:SHADING GROUP 1 FACE 6
  0
3DFACE
  8
Fixed Shading
 62
  9
 10
        2.19060
 20
       -0.35792
 30
       -1.04896
 11
        1.80319
 21
       -0.25827
 31
       -1.05070
 12
        1.80423
 22
       -0.25441
 32
       -1.05077
 13
        1.80423
 23
       -0.25441
 33
       -1.05077
999
Fixed Shading:Mir-SHADING GROUP 1 FACE 6
  0
3DFACE
  8
Fixed Shading
 62
  9
 10
        1.80423
 20
       -0.25441
 30
       -1.05077
 11
        1.80319
 21
       -0.25827
 31
       -1.05070
 12
        2.19060
 22
       -0.35792
 32
       -1.04896
 13
        2.19060
 23
       -0.35792
 33
       -1.04896
999
Fixed Shading:SHADING GROUP 1 FACE 7
  0
3DFACE
  8
Fixed Shading
 62
  9
 10
        1.69060
 20
       -0.35792
 30
       -1.04896
 11
        1.30423
 21
       -0.25441
 31
       -1.05077
 12
        1.30423
 22
       -0.26139
 32
       -1.45070
 13
        1.69060
 23
       -0.36490
 33
       -1.44890
999
Fixed Shading:Mir-SHADING GROUP 1 FACE 7
  0
3DFACE
  8
Fixed Shading
 62
  9
 10
        1.69060
 20
       -0.36490
 30
       -1.44890
 11
        1.30423
 21
       -0.26139
 31
       -1.45070
 12
        1.30423
 22
       -0.25441
 32
       -1.05077
 13
        1.69060
 23
       -0.35792
 33
       -1.04896
999
Fixed Shading:SHADING GROUP 1 FACE 8
  0
3DFACE
  8
Fixed Shading
 62
  9
 10
        1.68956
 20
       -0.36877
 30
       -1.44883
 11
        1.30319
 21
       -0.26526
 31
       -1.45064
 12
        1.30319
 22
       -0.25827
 32
       -1.05070
 13
        1.68956
 23
       -0.36179
 33
       -1.04889
999
Fixed Shading:Mir-SHADING GROUP 1 FACE 8
  0
3DFACE
  8
Fixed Shading
 62
  9
 10
        1.68956
 20
       -0.36179
 30
       -1.04889
 11
        1.30319
 21
       -0.25827
 31
       -1.05070
 12
        1.30319
 22
       -0.26526
 32
       -1.45064
 13
        1.68956
 23
       -0.36877
 33
       -1.44883
999
Fixed Shading:SHADING GROUP 1 FACE 9
  0
3DFACE
  8
Fixed Shading
 62
  9
 10
        1.69060
 20
       -0.36490
 30
       -1.44890
 11
        1.68956
 21
       -0.36179
 31
       -1.04889
 12
        1.69060
 22
       -0.35792
 32
       -1.04896
 13
        1.69060
 23
       -0.35792
 33
       -1.04896
999
Fixed Shading:Mir-SHADING GROUP 1 FACE 9
  0
3DFACE
  8
Fixed Shading
 62
  9
 10
        1.69060
 20
       -0.35792
 30
       -1.04896
 11
        1.68956
 21
       -0.36179
 31
       -1.04889
 12
        1.69060
 22
       -0.36490
 32
       -1.44890
 13
        1.69060
 23
       -0.36490
 33
       -1.44890
999
Fixed Shading:SHADING GROUP 1 FACE 10
  0
3DFACE
  8
Fixed Shading
 62
  9
 10
        1.30423
 20
       -0.26139
 30
       -1.45070
 11
        1.68956
 21
       -0.36877
 31
       -1.44883
 12
        1.69060
 22
       -0.36490
 32
       -1.44890
 13
        1.69060
 23
       -0.36490
 33
       -1.44890
999
Fixed Shading:Mir-SHADING GROUP 1 FACE 10
  0
3DFACE
  8
Fixed Shading
 62
  9
 10
        1.69060
 20
       -0.36490
 30
       -1.44890
 11
        1.68956
 21
       -0.36877
 31
       -1.44883
 12
        1.30423
 22
       -0.26139
 32
       -1.45070
 13
        1.30423
 23
       -0.26139
 33
       -1.45070
999
Fixed Shading:SHADING GROUP 1 FACE 11
  0
3DFACE
  8
Fixed Shading
 62
  9
 10
        1.30423
 20
       -0.25441
 30
       -1.05077
 11
        1.30319
 21
       -0.26526
 31
       -1.45064
 12
        1.30423
 22
       -0.26139
 32
       -1.45070
 13
        1.30423
 23
       -0.26139
 33
       -1.45070
999
Fixed Shading:Mir-SHADING GROUP 1 FACE 11
  0
3DFACE
  8
Fixed Shading
 62
  9
 10
        1.30423
 20
       -0.26139
 30
       -1.45070
 11
        1.30319
 21
       -0.26526
 31
       -1.45064
 12
        1.30423
 22
       -0.25441
 32
       -1.05077
 13
        1.30423
 23
       -0.25441
 33
       -1.05077
999
Fixed Shading:SHADING GROUP 1 FACE 12
  0
3DFACE
  8
Fixed Shading
 62
  9
 10
        1.69060
 20
       -0.35792
 30
       -1.04896
 11
        1.30319
 21
       -0.25827
 31
       -1.05070
 12
        1.30423
 22
       -0.25441
 32
       -1.05077
 13
        1.30423
 23
       -0.25441
 33
       -1.05077
999
Fixed Shading:Mir-SHADING GROUP 1 FACE 12
  0
3DFACE
  8
Fixed Shading
 62
  9
 10
        1.30423
 20
       -0.25441
 30
       -1.05077
 11
        1.30319
 21
       -0.25827
 31
       -1.05070
 12
        1.69060
 22
       -0.35792
 32
       -1.04896
 13
        1.69060
 23
       -0.35792
 33
       -1.04896
999
Fixed Shading:SHADING GROUP 1 FACE 13
  0
3DFACE
  8
Fixed Shading
 62
  9
 10
        1.19060
 20
       -0.35792
 30
       -1.04896
 11
        0.80423
 21
       -0.25441
 31
       -1.05077
 12
        0.80423
 22
       -0.26139
 32
       -1.45070
 13
        1.19060
 23
       -0.36490
 33
       -1.44890
999
Fixed Shading:Mir-SHADING GROUP 1 FACE 13
  0
3DFACE
  8
Fixed Shading
 62
  9
 10
        1.19060
 20
       -0.36490
 30
       -1.44890
 11
        0.80423
 21
       -0.26139
 31
       -1.45070
 12
        0.80423
 22
       -0.25441
 32
       -1.05077
 13
        1.19060
 23
       -0.35792
 33
       -1.04896
999
Fixed Shading:SHADING GROUP 1 FACE 14
  0
3DFACE
  8
Fixed Shading
 62
  9
 10
        1.18956
 20
       -0.36877
 30
       -1.44883
 11
        0.80319
 21
       -0.26526
 31
       -1.45064
 12
        0.80319
 22
       -0.25827
 32
       -1.05070
 13
        1.18956
 23
       -0.36179
 33
       -1.04889
999
Fixed Shading:Mir-SHADING GROUP 1 FACE 14
  0
3DFACE
  8
Fixed Shading
 62
  9
 10
        1.18956
 20
       -0.36179
 30
       -1.04889
 11
        0.80319
 21
       -0.25827
 31
       -1.05070
 12
        0.80319
 22
       -0.26526
 32
       -1.45064
 13
        1.18956
 23
       -0.36877
 33
       -1.44883
999
Fixed Shading:SHADING GROUP 1 FACE 15
  0
3DFACE
  8
Fixed Shading
 62
  9
 10
        1.19060
 20
       -0.36490
 30
       -1.44890
 11
        1.18956
 21
       -0.36179
 31
       -1.04889
 12
        1.19060
 22
       -0.35792
 32
       -1.04896
 13
        1.19060
 23
       -0.35792
 33
       -1.04896
999
Fixed Shading:Mir-SHADING GROUP 1 FACE 15
  0
3DFACE
  8
Fixed Shading
 62
  9
 10
        1.19060
 20
       -0.35792
 30
       -1.04896
 11
        1.18956
 21
       -0.36179
 31
       -1.04889
 12
        1.19060
 22
       -0.36490
 32
       -1.44890
 13
        1.19060
 23
       -0.36490
 33
       -1.44890
999
Fixed Shading:SHADING GROUP 1 FACE 16
  0
3DFACE
  8
Fixed Shading
 62
  9
 10
        0.80423
 20
       -0.26139
 30
       -1.45070
 11
        1.18956
 21
       -0.36877
 31
       -1.44883
 12
        1.19060
 22
       -0.36490
 32
       -1.44890
 13
        1.19060
 23
       -0.36490
 33
       -1.44890
999
Fixed Shading:Mir-SHADING GROUP 1 FACE 16
  0
3DFACE
  8
Fixed Shading
 62
  9
 10
        1.19060
 20
       -0.36490
 30
       -1.44890
 11
        1.18956
 21
       -0.36877
 31
       -1.44883
 12
        0.80423
 22
       -0.26139
 32
       -1.45070
 13
        0.80423
 23
       -0.26139
 33
       -1.45070
999
Fixed Shading:SHADING GROUP 1 FACE 17
  0
3DFACE
  8
Fixed Shading
 62
  9
 10
        0.80423
 20
       -0.25441
 30
       -1.05077
 11
        0.80319
 21
       -0.26526
 31
       -1.45064
 12
        0.80423
 22
       -0.26139
 32
       -1.45070
 13
        0.80423
 23
       -0.26139
 33
       -1.45070
999
Fixed Shading:Mir-SHADING GROUP 1 FACE 17
  0
3DFACE
  8
Fixed Shading
 62
  9
 10
        0.80423
 20
       -0.26139
 30
       -1.45070
 11
        0.80319
 21
       -0.26526
 31
       -1.45064
 12
        0.80423
 22
       -0.25441
 32
       -1.05077
 13
        0.80423
 23
       -0.25441
 33
       -1.05077
999
Fixed Shading:SHADING GROUP 1 FACE 18
  0
3DFACE
  8
Fixed Shading
 62
  9
 10
        1.19060
 20
       -0.35792
 30
       -1.04896
 11
        0.80319
 21
       -0.25827
 31
       -1.05070
 12
        0.80423
 22
       -0.25441
 32
       -1.05077
 13
        0.80423
 23
       -0.25441
 33
       -1.05077
999
Fixed Shading:Mir-SHADING GROUP 1 FACE 18
  0
3DFACE
  8
Fixed Shading
 62
  9
 10
        0.80423
 20
       -0.25441
 30
       -1.05077
 11
        0.80319
 21
       -0.25827
 31
       -1.05070
 12
        1.19060
 22
       -0.35792
 32
       -1.04896
 13
        1.19060
 23
       -0.35792
 33
       -1.04896
999
Fixed Shading:SHADING GROUP 1 FACE 19
  0
3DFACE
  8
Fixed Shading
 62
  9
 10
        0.69060
 20
       -0.35792
 30
       -1.04896
 11
        0.30423
 21
       -0.25441
 31
       -1.05077
 12
        0.30423
 22
       -0.26139
 32
       -1.45070
 13
        0.69060
 23
       -0.36490
 33
       -1.44890
999
Fixed Shading:Mir-SHADING GROUP 1 FACE 19
  0
3DFACE
  8
Fixed Shading
 62
  9
 10
        0.69060
 20
       -0.36490
 30
       -1.44890
 11
        0.30423
 21
       -0.26139
 31
       -1.45070
 12
        0.30423
 22
       -0.25441
 32
       -1.05077
 13
        0.69060
 23
       -0.35792
 33
       -1.04896
999
Fixed Shading:SHADING GROUP 1 FACE 20
  0
3DFACE
  8
Fixed Shading
 62
  9
 10
        0.68956
 20
       -0.36877
 30
       -1.44883
 11
        0.30319
 21
       -0.26526
 31
       -1.45064
 12
        0.30319
 22
       -0.25827
 32
       -1.05070
 13
        0.68956
 23
       -0.36179
 33
       -1.04889
999
Fixed Shading:Mir-SHADING GROUP 1 FACE 20
  0
3DFACE
  8
Fixed Shading
 62
  9
 10
        0.68956
 20
       -0.36179
 30
       -1.04889
 11
        0.30319
 21
       -0.25827
 31
       -1.05070
 12
        0.30319
 22
       -0.26526
 32
       -1.45064
 13
        0.68956
 23
       -0.36877
 33
       -1.44883
999
Fixed Shading:SHADING GROUP 1 FACE 21
  0
3DFACE
  8
Fixed Shading
 62
  9
 10
        0.69060
 20
       -0.36490
 30
       -1.44890
 11
        0.68956
 21
       -0.36179
 31
       -1.04889
 12
        0.69060
 22
       -0.35792
 32
       -1.04896
 13
        0.69060
 23
       -0.35792
 33
       -1.04896
999
Fixed Shading:Mir-SHADING GROUP 1 FACE 21
  0
3DFACE
  8
Fixed Shading
 62
  9
 10
        0.69060
 20
       -0.35792
 30
       -1.04896
 11
        0.68956
 21
       -0.36179
 31
       -1.04889
 12
        0.69060
 22
       -0.36490
 32
       -1.44890
 13
        0.69060
 23
       -0.36490
 33
       -1.44890
999
Fixed Shading:SHADING GROUP 1 FACE 22
  0
3DFACE
  8
Fixed Shading
 62
  9
 10
        0.30423
 20
       -0.26139
 30
       -1.45070
 11
        0.68956
 21
       -0.36877
 31
       -1.44883
 12
        0.69060
 22
       -0.36490
 32
       -1.44890
 13
        0.69060
 23
       -0.36490
 33
       -1.44890
999
Fixed Shading:Mir-SHADING GROUP 1 FACE 22
  0
3DFACE
  8
Fixed Shading
 62
  9
 10
        0.69060
 20
       -0.36490
 30
       -1.44890
 11
        0.68956
 21
       -0.36877
 31
       -1.44883
 12
        0.30423
 22
       -0.26139
 32
       -1.45070
 13
        0.30423
 23
       -0.26139
 33
       -1.45070
999
Fixed Shading:SHADING GROUP 1 FACE 23
  0
3DFACE
  8
Fixed Shading
 62
  9
 10
        0.30423
 20
       -0.25441
 30
       -1.05077
 11
        0.30319
 21
       -0.26526
 31
       -1.45064
 12
        0.30423
 22
       -0.26139
 32
       -1.45070
 13
        0.30423
 23
       -0.26139
 33
       -1.45070
999
Fixed Shading:Mir-SHADING GROUP 1 FACE 23
  0
3DFACE
  8
Fixed Shading
 62
  9
 10
        0.30423
 20
       -0.26139
 30
       -1.45070
 11
        0.30319
 21
       -0.26526
 31
       -1.45064
 12
        0.30423
 22
       -0.25441
 32
       -1.05077
 13
        0.30423
 23
       -0.25441
 33
       -1.05077
999
Fixed Shading:SHADING GROUP 1 FACE 24
  0
3DFACE
  8
Fixed Shading
 62
  9
 10
        0.69060
 20
       -0.35792
 30
       -1.04896
 11
        0.30319
 21
       -0.25827
 31
       -1.05070
 12
        0.30423
 22
       -0.25441
 32
       -1.05077
 13
        0.30423
 23
       -0.25441
 33
       -1.05077
999
Fixed Shading:Mir-SHADING GROUP 1 FACE 24
  0
3DFACE
  8
Fixed Shading
 62
  9
 10
        0.30423
 20
       -0.25441
 30
       -1.05077
 11
        0.30319
 21
       -0.25827
 31
       -1.05070
 12
        0.69060
 22
       -0.35792
 32
       -1.04896
 13
        0.69060
 23
       -0.35792
 33
       -1.04896
999
Fixed Shading:SHADING GROUP 1 FACE 25
  0
3DFACE
  8
Fixed Shading
 62
  9
 10
        0.19060
 20
       -0.35792
 30
       -1.04896
 11
       -0.19577
 21
       -0.25441
 31
       -1.05077
 12
       -0.19577
 22
       -0.26139
 32
       -1.45070
 13
        0.19060
 23
       -0.36490
 33
       -1.44890
999
Fixed Shading:Mir-SHADING GROUP 1 FACE 25
  0
3DFACE
  8
Fixed Shading
 62
  9
 10
        0.19060
 20
       -0.36490
 30
       -1.44890
 11
       -0.19577
 21
       -0.26139
 31
       -1.45070
 12
       -0.19577
 22
       -0.25441
 32
       -1.05077
 13
        0.19060
 23
       -0.35792
 33
       -1.04896
999
Fixed Shading:SHADING GROUP 1 FACE 26
  0
3DFACE
  8
Fixed Shading
 62
  9
 10
        0.18956
 20
       -0.36877
 30
       -1.44883
 11
       -0.19681
 21
       -0.26526
 31
       -1.45064
 12
       -0.19681
 22
       -0.25827
 32
       -1.05070
 13
        0.18956
 23
       -0.36179
 33
       -1.04889
999
Fixed Shading:Mir-SHADING GROUP 1 FACE 26
  0
3DFACE
  8
Fixed Shading
 62
  9
 10
        0.18956
 20
       -0.36179
 30
       -1.04889
 11
       -0.19681
 21
       -0.25827
 31
       -1.05070
 12
       -0.19681
 22
       -0.26526
 32
       -1.45064
 13
        0.18956
 23
       -0.36877
 33
       -1.44883
999
Fixed Shading:SHADING GROUP 1 FACE 27
  0
3DFACE
  8
Fixed Shading
 62
  9
 10
        0.19060
 20
       -0.36490
 30
       -1.44890
 11
        0.18956
 21
       -0.36179
 31
       -1.04889
 12
        0.19060
 22
       -0.35792
 32
       -1.04896
 13
        0.19060
 23
       -0.35792
 33
       -1.04896
999
Fixed Shading:Mir-SHADING GROUP 1 FACE 27
  0
3DFACE
  8
Fixed Shading
 62
  9
 10
        0.19060
 20
       -0.35792
 30
       -1.04896
 11
        0.18956
 21
       -0.36179
 31
       -1.04889
 12
        0.19060
 22
       -0.36490
 32
       -1.44890
 13
        0.19060
 23
       -0.36490
 33
       -1.44890
999
Fixed Shading:SHADING GROUP 1 FACE 28
  0
3DFACE
  8
Fixed Shading
 62
  9
 10
       -0.19577
 20
       -0.26139
 30
       -1.45070
 11
        0.18956
 21
       -0.36877
 31
       -1.44883
 12
        0.19060
 22
       -0.36490
 32
       -1.44890
 13
        0.19060
 23
       -0.36490
 33
       -1.44890
999
Fixed Shading:Mir-SHADING GROUP 1 FACE 28
  0
3DFACE
  8
Fixed Shading
 62
  9
 10
        0.19060
 20
       -0.36490
 30
       -1.44890
 11
        0.18956
 21
       -0.36877
 31
       -1.44883
 12
       -0.19577
 22
       -0.26139
 32
       -1.45070
 13
       -0.19577
 23
       -0.26139
 33
       -1.45070
999
Fixed Shading:SHADING GROUP 1 FACE 29
  0
3DFACE
  8
Fixed Shading
 62
  9
 10
       -0.19577
 20
       -0.25441
 30
       -1.05077
 11
       -0.19681
 21
       -0.26526
 31
       -1.45064
 12
       -0.19577
 22
       -0.26139
 32
       -1.45070
 13
       -0.19577
 23
       -0.26139
 33
       -1.45070
999
Fixed Shading:Mir-SHADING GROUP 1 FACE 29
  0
3DFACE
  8
Fixed Shading
 62
  9
 10
       -0.19577
 20
       -0.26139
 30
       -1.45070
 11
       -0.19681
 21
       -0.26526
 31
       -1.45064
 12
       -0.19577
 22
       -0.25441
 32
       -1.05077
 13
       -0.19577
 23
       -0.25441
 33
       -1.05077
999
Fixed Shading:SHADING GROUP 1 FACE 30
  0
3DFACE
  8
Fixed Shading
 62
  9
 10
        0.19060
 20
       -0.35792
 30
       -1.04896
 11
       -0.19681
 21
       -0.25827
 31
       -1.05070
 12
       -0.19577
 22
       -0.25441
 32
       -1.05077
 13
       -0.19577
 23
       -0.25441
 33
       -1.05077
999
Fixed Shading:Mir-SHADING GROUP 1 FACE 30
  0
3DFACE
  8
Fixed Shading
 62
  9
 10
       -0.19577
 20
       -0.25441
 30
       -1.05077
 11
       -0.19681
 21
       -0.25827
 31
       -1.05070
 12
        0.19060
 22
       -0.35792
 32
       -1.04896
 13
        0.19060
 23
       -0.35792
 33
       -1.04896
999
Fixed Shading:SHADING GROUP 1 FACE 31
  0
3DFACE
  8
Fixed Shading
 62
  9
 10
       -0.30940
 20
       -0.35792
 30
       -1.04896
 11
       -0.69577
 21
       -0.25441
 31
       -1.05077
 12
       -0.69577
 22
       -0.26139
 32
       -1.45070
 13
       -0.30940
 23
       -0.36490
 33
       -1.44890
999
Fixed Shading:Mir-SHADING GROUP 1 FACE 31
  0
3DFACE
  8
Fixed Shading
 62
  9
 10
       -0.30940
 20
       -0.36490
 30
       -1.44890
 11
       -0.69577
 21
       -0.26139
 31
       -1.45070
 12
       -0.69577
 22
       -0.25441
 32
       -1.05077
 13
       -0.30940
 23
       -0.35792
 33
       -1.04896
999
Fixed Shading:SHADING GROUP 1 FACE 32
  0
3DFACE
  8
Fixed Shading
 62
  9
 10
       -0.31044
 20
       -0.36877
 30
       -1.44883
 11
       -0.69681
 21
       -0.26526
 31
       -1.45064
 12
       -0.69681
 22
       -0.25827
 32
       -1.05070
 13
       -0.31044
 23
       -0.36179
 33
       -1.04889
999
Fixed Shading:Mir-SHADING GROUP 1 FACE 32
  0
3DFACE
  8
Fixed Shading
 62
  9
 10
       -0.31044
 20
       -0.36179
 30
       -1.04889
 11
       -0.69681
 21
       -0.25827
 31
       -1.05070
 12
       -0.69681
 22
       -0.26526
 32
       -1.45064
 13
       -0.31044
 23
       -0.36877
 33
       -1.44883
999
Fixed Shading:SHADING GROUP 1 FACE 33
  0
3DFACE
  8
Fixed Shading
 62
  9
 10
       -0.30940
 20
       -0.36490
 30
       -1.44890
 11
       -0.31044
 21
       -0.36179
 31
       -1.04889
 12
       -0.30940
 22
       -0.35792
 32
       -1.04896
 13
       -0.30940
 23
       -0.35792
 33
       -1.04896
999
Fixed Shading:Mir-SHADING GROUP 1 FACE 33
  0
3DFACE
  8
Fixed Shading
 62
  9
 10
       -0.30940
 20
       -0.35792
 30
       -1.04896
 11
       -0.31044
 21
       -0.36179
 31
       -1.04889
 12
       -0.30940
 22
       -0.36490
 32
       -1.44890
 13
       -0.30940
 23
       -0.36490
 33
       -1.44890
999
Fixed Shading:SHADING GROUP 1 FACE 34
  0
3DFACE
  8
Fixed Shading
 62
  9
 10
       -0.69577
 20
       -0.26139
 30
       -1.45070
 11
       -0.31044
 21
       -0.36877
 31
       -1.44883
 12
       -0.30940
 22
       -0.36490
 32
       -1.44890
 13
       -0.30940
 23
       -0.36490
 33
       -1.44890
999
Fixed Shading:Mir-SHADING GROUP 1 FACE 34
  0
3DFACE
  8
Fixed Shading
 62
  9
 10
       -0.30940
 20
       -0.36490
 30
       -1.44890
 11
       -0.31044
 21
       -0.36877
 31
       -1.44883
 12
       -0.69577
 22
       -0.26139
 32
       -1.45070
 13
       -0.69577
 23
       -0.26139
 33
       -1.45070
999
Fixed Shading:SHADING GROUP 1 FACE 35
  0
3DFACE
  8
Fixed Shading
 62
  9
 10
       -0.69577
 20
       -0.25441
 30
       -1.05077
 11
       -0.69681
 21
       -0.26526
 31
       -1.45064
 12
       -0.69577
 22
       -0.26139
 32
       -1.45070
 13
       -0.69577
 23
       -0.26139
 33
       -1.45070
999
Fixed Shading:Mir-SHADING GROUP 1 FACE 35
  0
3DFACE
  8
Fixed Shading
 62
  9
 10
       -0.69577
 20
       -0.26139
 30
       -1.45070
 11
       -0.69681
 21
       -0.26526
 31
       -1.45064
 12
       -0.69577
 22
       -0.25441
 32
       -1.05077
 13
       -0.69577
 23
       -0.25441
 33
       -1.05077
999
Fixed Shading:SHADING GROUP 1 FACE 36
  0
3DFACE
  8
Fixed Shading
 62
  9
 10
       -0.30940
 20
       -0.35792
 30
       -1.04896
 11
       -0.69681
 21
       -0.25827
 31
       -1.05070
 12
       -0.69577
 22
       -0.25441
 32
       -1.05077
 13
       -0.69577
 23
       -0.25441
 33
       -1.05077
999
Fixed Shading:Mir-SHADING GROUP 1 FACE 36
  0
3DFACE
  8
Fixed Shading
 62
  9
 10
       -0.69577
 20
       -0.25441
 30
       -1.05077
 11
       -0.69681
 21
       -0.25827
 31
       -1.05070
 12
       -0.30940
 22
       -0.35792
 32
       -1.04896
 13
       -0.30940
 23
       -0.35792
 33
       -1.04896
999
Fixed Shading:SHADING GROUP 1 FACE 37
  0
3DFACE
  8
Fixed Shading
 62
  9
 10
       -0.80940
 20
       -0.35792
 30
       -1.04896
 11
       -1.19577
 21
       -0.25441
 31
       -1.05077
 12
       -1.19577
 22
       -0.26139
 32
       -1.45070
 13
       -0.80940
 23
       -0.36490
 33
       -1.44890
999
Fixed Shading:Mir-SHADING GROUP 1 FACE 37
  0
3DFACE
  8
Fixed Shading
 62
  9
 10
       -0.80940
 20
       -0.36490
 30
       -1.44890
 11
       -1.19577
 21
       -0.26139
 31
       -1.45070
 12
       -1.19577
 22
       -0.25441
 32
       -1.05077
 13
       -0.80940
 23
       -0.35792
 33
       -1.04896
999
Fixed Shading:SHADING GROUP 1 FACE 38
  0
3DFACE
  8
Fixed Shading
 62
  9
 10
       -0.81044
 20
       -0.36877
 30
       -1.44883
 11
       -1.19681
 21
       -0.26526
 31
       -1.45064
 12
       -1.19681
 22
       -0.25827
 32
       -1.05070
 13
       -0.81044
 23
       -0.36179
 33
       -1.04889
999
Fixed Shading:Mir-SHADING GROUP 1 FACE 38
  0
3DFACE
  8
Fixed Shading
 62
  9
 10
       -0.81044
 20
       -0.36179
 30
       -1.04889
 11
       -1.19681
 21
       -0.25827
 31
       -1.05070
 12
       -1.19681
 22
       -0.26526
 32
       -1.45064
 13
       -0.81044
 23
       -0.36877
 33
       -1.44883
999
Fixed Shading:SHADING GROUP 1 FACE 39
  0
3DFACE
  8
Fixed Shading
 62
  9
 10
       -0.80940
 20
       -0.36490
 30
       -1.44890
 11
       -0.81044
 21
       -0.36179
 31
       -1.04889
 12
       -0.80940
 22
       -0.35792
 32
       -1.04896
 13
       -0.80940
 23
       -0.35792
 33
       -1.04896
999
Fixed Shading:Mir-SHADING GROUP 1 FACE 39
  0
3DFACE
  8
Fixed Shading
 62
  9
 10
       -0.80940
 20
       -0.35792
 30
       -1.04896
 11
       -0.81044
 21
       -0.36179
 31
       -1.04889
 12
       -0.80940
 22
       -0.36490
 32
       -1.44890
 13
       -0.80940
 23
       -0.36490
 33
       -1.44890
999
Fixed Shading:SHADING GROUP 1 FACE 40
  0
3DFACE
  8
Fixed Shading
 62
  9
 10
       -1.19577
 20
       -0.26139
 30
       -1.45070
 11
       -0.81044
 21
       -0.36877
 31
       -1.44883
 12
       -0.80940
 22
       -0.36490
 32
       -1.44890
 13
       -0.80940
 23
       -0.36490
 33
       -1.44890
999
Fixed Shading:Mir-SHADING GROUP 1 FACE 40
  0
3DFACE
  8
Fixed Shading
 62
  9
 10
       -0.80940
 20
       -0.36490
 30
       -1.44890
 11
       -0.81044
 21
       -0.36877
 31
       -1.44883
 12
       -1.19577
 22
       -0.26139
 32
       -1.45070
 13
       -1.19577
 23
       -0.26139
 33
       -1.45070
999
Fixed Shading:SHADING GROUP 1 FACE 41
  0
3DFACE
  8
Fixed Shading
 62
  9
 10
       -1.19577
 20
       -0.25441
 30
       -1.05077
 11
       -1.19681
 21
       -0.26526
 31
       -1.45064
 12
       -1.19577
 22
       -0.26139
 32
       -1.45070
 13
       -1.19577
 23
       -0.26139
 33
       -1.45070
999
Fixed Shading:Mir-SHADING GROUP 1 FACE 41
  0
3DFACE
  8
Fixed Shading
 62
  9
 10
       -1.19577
 20
       -0.26139
 30
       -1.45070
 11
       -1.19681
 21
       -0.26526
 31
       -1.45064
 12
       -1.19577
 22
       -0.25441
 32
       -1.05077
 13
       -1.19577
 23
       -0.25441
 33
       -1.05077
999
Fixed Shading:SHADING GROUP 1 FACE 42
  0
3DFACE
  8
Fixed Shading
 62
  9
 10
       -0.80940
 20
       -0.35792
 30
       -1.04896
 11
       -1.19681
 21
       -0.25827
 31
       -1.05070
 12
       -1.19577
 22
       -0.25441
 32
       -1.05077
 13
       -1.19577
 23
       -0.25441
 33
       -1.05077
999
Fixed Shading:Mir-SHADING GROUP 1 FACE 42
  0
3DFACE
  8
Fixed Shading
 62
  9
 10
       -1.19577
 20
       -0.25441
 30
       -1.05077
 11
       -1.19681
 21
       -0.25827
 31
       -1.05070
 12
       -0.80940
 22
       -0.35792
 32
       -1.04896
 13
       -0.80940
 23
       -0.35792
 33
       -1.04896
999
Fixed Shading:SHADING GROUP 1 FACE 43
  0
3DFACE
  8
Fixed Shading
 62
  9
 10
       -1.30940
 20
       -0.35792
 30
       -1.04896
 11
       -1.69577
 21
       -0.25441
 31
       -1.05077
 12
       -1.69577
 22
       -0.26139
 32
       -1.45070
 13
       -1.30940
 23
       -0.36490
 33
       -1.44890
999
Fixed Shading:Mir-SHADING GROUP 1 FACE 43
  0
3DFACE
  8
Fixed Shading
 62
  9
 10
       -1.30940
 20
       -0.36490
 30
       -1.44890
 11
       -1.69577
 21
       -0.26139
 31
       -1.45070
 12
       -1.69577
 22
       -0.25441
 32
       -1.05077
 13
       -1.30940
 23
       -0.35792
 33
       -1.04896
999
Fixed Shading:SHADING GROUP 1 FACE 44
  0
3DFACE
  8
Fixed Shading
 62
  9
 10
       -1.31044
 20
       -0.36877
 30
       -1.44883
 11
       -1.69681
 21
       -0.26526
 31
       -1.45064
 12
       -1.69681
 22
       -0.25827
 32
       -1.05070
 13
       -1.31044
 23
       -0.36179
 33
       -1.04889
999
Fixed Shading:Mir-SHADING GROUP 1 FACE 44
  0
3DFACE
  8
Fixed Shading
 62
  9
 10
       -1.31044
 20
       -0.36179
 30
       -1.04889
 11
       -1.69681
 21
       -0.25827
 31
       -1.05070
 12
       -1.69681
 22
       -0.26526
 32
       -1.45064
 13
       -1.31044
 23
       -0.36877
 33
       -1.44883
999
Fixed Shading:SHADING GROUP 1 FACE 45
  0
3DFACE
  8
Fixed Shading
 62
  9
 10
       -1.30940
 20
       -0.36490
 30
       -1.44890
 11
       -1.31044
 21
       -0.36179
 31
       -1.04889
 12
       -1.30940
 22
       -0.35792
 32
       -1.04896
 13
       -1.30940
 23
       -0.35792
 33
       -1.04896
999
Fixed Shading:Mir-SHADING GROUP 1 FACE 45
  0
3DFACE
  8
Fixed Shading
 62
  9
 10
       -1.30940
 20
       -0.35792
 30
       -1.04896
 11
       -1.31044
 21
       -0.36179
 31
       -1.04889
 12
       -1.30940
 22
       -0.36490
 32
       -1.44890
 13
       -1.30940
 23
       -0.36490
 33
       -1.44890
999
Fixed Shading:SHADING GROUP 1 FACE 46
  0
3DFACE
  8
Fixed Shading
 62
  9
 10
       -1.69577
 20
       -0.26139
 30
       -1.45070
 11
       -1.31044
 21
       -0.36877
 31
       -1.44883
 12
       -1.30940
 22
       -0.36490
 32
       -1.44890
 13
       -1.30940
 23
       -0.36490
 33
       -1.44890
999
Fixed Shading:Mir-SHADING GROUP 1 FACE 46
  0
3DFACE
  8
Fixed Shading
 62
  9
 10
       -1.30940
 20
       -0.36490
 30
       -1.44890
 11
       -1.31044
 21
       -0.36877
 31
       -1.44883
 12
       -1.69577
 22
       -0.26139
 32
       -1.45070
 13
       -1.69577
 23
       -0.26139
 33
       -1.45070
999
Fixed Shading:SHADING GROUP 1 FACE 47
  0
3DFACE
  8
Fixed Shading
 62
  9
 10
       -1.69577
 20
       -0.25441
 30
       -1.05077
 11
       -1.69681
 21
       -0.26526
 31
       -1.45064
 12
       -1.69577
 22
       -0.26139
 32
       -1.45070
 13
       -1.69577
 23
       -0.26139
 33
       -1.45070
999
Fixed Shading:Mir-SHADING GROUP 1 FACE 47
  0
3DFACE
  8
Fixed Shading
 62
  9
 10
       -1.69577
 20
       -0.26139
 30
       -1.45070
 11
       -1.69681
 21
       -0.26526
 31
       -1.45064
 12
       -1.69577
 22
       -0.25441
 32
       -1.05077
 13
       -1.69577
 23
       -0.25441
 33
       -1.05077
999
Fixed Shading:SHADING GROUP 1 FACE 48
  0
3DFACE
  8
Fixed Shading
 62
  9
 10
       -1.30940
 20
       -0.35792
 30
       -1.04896
 11
       -1.69681
 21
       -0.25827
 31
       -1.05070
 12
       -1.69577
 22
       -0.25441
 32
       -1.05077
 13
       -1.69577
 23
       -0.25441
 33
       -1.05077
999
Fixed Shading:Mir-SHADING GROUP 1 FACE 48
  0
3DFACE
  8
Fixed Shading
 62
  9
 10
       -1.69577
 20
       -0.25441
 30
       -1.05077
 11
       -1.69681
 21
       -0.25827
 31
       -1.05070
 12
       -1.30940
 22
       -0.35792
 32
       -1.04896
 13
       -1.30940
 23
       -0.35792
 33
       -1.04896
999
Fixed Shading:SHADING GROUP 1 FACE 49
  0
3DFACE
  8
Fixed Shading
 62
  9
 10
       -1.80940
 20
       -0.35792
 30
       -1.04896
 11
       -2.19577
 21
       -0.25441
 31
       -1.05077
 12
       -2.19577
 22
       -0.26139
 32
       -1.45070
 13
       -1.80940
 23
       -0.36490
 33
       -1.44890
999
Fixed Shading:Mir-SHADING GROUP 1 FACE 49
  0
3DFACE
  8
Fixed Shading
 62
  9
 10
       -1.80940
 20
       -0.36490
 30
       -1.44890
 11
       -2.19577
 21
       -0.26139
 31
       -1.45070
 12
       -2.19577
 22
       -0.25441
 32
       -1.05077
 13
       -1.80940
 23
       -0.35792
 33
       -1.04896
999
Fixed Shading:SHADING GROUP 1 FACE 50
  0
3DFACE
  8
Fixed Shading
 62
  9
 10
       -1.81044
 20
       -0.36877
 30
       -1.44883
 11
       -2.19681
 21
       -0.26526
 31
       -1.45064
 12
       -2.19681
 22
       -0.25827
 32
       -1.05070
 13
       -1.81044
 23
       -0.36179
 33
       -1.04889
999
Fixed Shading:Mir-SHADING GROUP 1 FACE 50
  0
3DFACE
  8
Fixed Shading
 62
  9
 10
       -1.81044
 20
       -0.36179
 30
       -1.04889
 11
       -2.19681
 21
       -0.25827
 31
       -1.05070
 12
       -2.19681
 22
       -0.26526
 32
       -1.45064
 13
       -1.81044
 23
       -0.36877
 33
       -1.44883
999
Fixed Shading:SHADING GROUP 1 FACE 51
  0
3DFACE
  8
Fixed Shading
 62
  9
 10
       -1.80940
 20
       -0.36490
 30
       -1.44890
 11
       -1.81044
 21
       -0.36179
 31
       -1.04889
 12
       -1.80940
 22
       -0.35792
 32
       -1.04896
 13
       -1.80940
 23
       -0.35792
 33
       -1.04896
999
Fixed Shading:Mir-SHADING GROUP 1 FACE 51
  0
3DFACE
  8
Fixed Shading
 62
  9
 10
       -1.80940
 20
       -0.35792
 30
       -1.04896
 11
       -1.81044
 21
       -0.36179
 31
       -1.04889
 12
       -1.80940
 22
       -0.36490
 32
       -1.44890
 13
       -1.80940
 23
       -0.36490
 33
       -1.44890
999
Fixed Shading:SHADING GROUP 1 FACE 52
  0
3DFACE
  8
Fixed Shading
 62
  9
 10
       -2.19577
 20
       -0.26139
 30
       -1.45070
 11
       -1.81044
 21
       -0.36877
 31
       -1.44883
 12
       -1.80940
 22
       -0.36490
 32
       -1.44890
 13
       -1.80940
 23
       -0.36490
 33
       -1.44890
999
Fixed Shading:Mir-SHADING GROUP 1 FACE 52
  0
3DFACE
  8
Fixed Shading
 62
  9
 10
       -1.80940
 20
       -0.36490
 30
       -1.44890
 11
       -1.81044
 21
       -0.36877
 31
       -1.44883
 12
       -2.19577
 22
       -0.26139
 32
       -1.45070
 13
       -2.19577
 23
       -0.26139
 33
       -1.45070
999
Fixed Shading:SHADING GROUP 1 FACE 53
  0
3DFACE
  8
Fixed Shading
 62
  9
 10
       -2.19577
 20
       -0.25441
 30
       -1.05077
 11
       -2.19681
 21
       -0.26526
 31
       -1.45064
 12
       -2.19577
 22
       -0.26139
 32
       -1.45070
 13
       -2.19577
 23
       -0.26139
 33
       -1.45070
999
Fixed Shading:Mir-SHADING GROUP 1 FACE 53
  0
3DFACE
  8
Fixed Shading
 62
  9
 10
       -2.19577
 20
       -0.26139
 30
       -1.45070
 11
       -2.19681
 21
       -0.26526
 31
       -1.45064
 12
       -2.19577
 22
       -0.25441
 32
       -1.05077
 13
       -2.19577
 23
       -0.25441
 33
       -1.05077
999
Fixed Shading:SHADING GROUP 1 FACE 54
  0
3DFACE
  8
Fixed Shading
 62
  9
 10
       -1.80940
 20
       -0.35792
 30
       -1.04896
 11
       -2.19681
 21
       -0.25827
 31
       -1.05070
 12
       -2.19577
 22
       -0.25441
 32
       -1.05077
 13
       -2.19577
 23
       -0.25441
 33
       -1.05077
999
Fixed Shading:Mir-SHADING GROUP 1 FACE 54
  0
3DFACE
  8
Fixed Shading
 62
  9
 10
       -2.19577
 20
       -0.25441
 30
       -1.05077
 11
       -2.19681
 21
       -0.25827
 31
       -1.05070
 12
       -1.80940
 22
       -0.35792
 32
       -1.04896
 13
       -1.80940
 23
       -0.35792
 33
       -1.04896
999
Fixed Shading:SHADING GROUP 1 FACE 55
  0
3DFACE
  8
Fixed Shading
 62
  9
 10
        2.19060
 20
       -0.35792
 30
       -0.54896
 11
        1.80423
 21
       -0.25441
 31
       -0.55077
 12
        1.80423
 22
       -0.26139
 32
       -0.95070
 13
        2.19060
 23
       -0.36490
 33
       -0.94890
999
Fixed Shading:Mir-SHADING GROUP 1 FACE 55
  0
3DFACE
  8
Fixed Shading
 62
  9
 10
        2.19060
 20
       -0.36490
 30
       -0.94890
 11
        1.80423
 21
       -0.26139
 31
       -0.95070
 12
        1.80423
 22
       -0.25441
 32
       -0.55077
 13
        2.19060
 23
       -0.35792
 33
       -0.54896
999
Fixed Shading:SHADING GROUP 1 FACE 56
  0
3DFACE
  8
Fixed Shading
 62
  9
 10
        2.18956
 20
       -0.36877
 30
       -0.94883
 11
        1.80319
 21
       -0.26526
 31
       -0.95064
 12
        1.80319
 22
       -0.25827
 32
       -0.55070
 13
        2.18956
 23
       -0.36179
 33
       -0.54889
999
Fixed Shading:Mir-SHADING GROUP 1 FACE 56
  0
3DFACE
  8
Fixed Shading
 62
  9
 10
        2.18956
 20
       -0.36179
 30
       -0.54889
 11
        1.80319
 21
       -0.25827
 31
       -0.55070
 12
        1.80319
 22
       -0.26526
 32
       -0.95064
 13
        2.18956
 23
       -0.36877
 33
       -0.94883
999
Fixed Shading:SHADING GROUP 1 FACE 57
  0
3DFACE
  8
Fixed Shading
 62
  9
 10
        2.19060
 20
       -0.36490
 30
       -0.94890
 11
        2.18956
 21
       -0.36179
 31
       -0.54889
 12
        2.19060
 22
       -0.35792
 32
       -0.54896
 13
        2.19060
 23
       -0.35792
 33
       -0.54896
999
Fixed Shading:Mir-SHADING GROUP 1 FACE 57
  0
3DFACE
  8
Fixed Shading
 62
  9
 10
        2.19060
 20
       -0.35792
 30
       -0.54896
 11
        2.18956
 21
       -0.36179
 31
       -0.54889
 12
        2.19060
 22
       -0.36490
 32
       -0.94890
 13
        2.19060
 23
       -0.36490
 33
       -0.94890
999
Fixed Shading:SHADING GROUP 1 FACE 58
  0
3DFACE
  8
Fixed Shading
 62
  9
 10
        1.80423
 20
       -0.26139
 30
       -0.95070
 11
        2.18956
 21
       -0.36877
 31
       -0.94883
 12
        2.19060
 22
       -0.36490
 32
       -0.94890
 13
        2.19060
 23
       -0.36490
 33
       -0.94890
999
Fixed Shading:Mir-SHADING GROUP 1 FACE 58
  0
3DFACE
  8
Fixed Shading
 62
  9
 10
        2.19060
 20
       -0.36490
 30
       -0.94890
 11
        2.18956
 21
       -0.36877
 31
       -0.94883
 12
        1.80423
 22
       -0.26139
 32
       -0.95070
 13
        1.80423
 23
       -0.26139
 33
       -0.95070
999
Fixed Shading:SHADING GROUP 1 FACE 59
  0
3DFACE
  8
Fixed Shading
 62
  9
 10
        1.80423
 20
       -0.25441
 30
       -0.55077
 11
        1.80319
 21
       -0.26526
 31
       -0.95064
 12
        1.80423
 22
       -0.26139
 32
       -0.95070
 13
        1.80423
 23
       -0.26139
 33
       -0.95070
999
Fixed Shading:Mir-SHADING GROUP 1 FACE 59
  0
3DFACE
  8
Fixed Shading
 62
  9
 10
        1.80423
 20
       -0.26139
 30
       -0.95070
 11
        1.80319
 21
       -0.26526
 31
       -0.95064
 12
        1.80423
 22
       -0.25441
 32
       -0.55077
 13
        1.80423
 23
       -0.25441
 33
       -0.55077
999
Fixed Shading:SHADING GROUP 1 FACE 60
  0
3DFACE
  8
Fixed Shading
 62
  9
 10
        2.19060
 20
       -0.35792
 30
       -0.54896
 11
        1.80319
 21
       -0.25827
 31
       -0.55070
 12
        1.80423
 22
       -0.25441
 32
       -0.55077
 13
        1.80423
 23
       -0.25441
 33
       -0.55077
999
Fixed Shading:Mir-SHADING GROUP 1 FACE 60
  0
3DFACE
  8
Fixed Shading
 62
  9
 10
        1.80423
 20
       -0.25441
 30
       -0.55077
 11
        1.80319
 21
       -0.25827
 31
       -0.55070
 12
        2.19060
 22
       -0.35792
 32
       -0.54896
 13
        2.19060
 23
       -0.35792
 33
       -0.54896
999
Fixed Shading:SHADING GROUP 1 FACE 61
  0
3DFACE
  8
Fixed Shading
 62
  9
 10
        1.69060
 20
       -0.35792
 30
       -0.54896
 11
        1.30423
 21
       -0.25441
 31
       -0.55077
 12
        1.30423
 22
       -0.26139
 32
       -0.95070
 13
        1.69060
 23
       -0.36490
 33
       -0.94890
999
Fixed Shading:Mir-SHADING GROUP 1 FACE 61
  0
3DFACE
  8
Fixed Shading
 62
  9
 10
        1.69060
 20
       -0.36490
 30
       -0.94890
 11
        1.30423
 21
       -0.26139
 31
       -0.95070
 12
        1.30423
 22
       -0.25441
 32
       -0.55077
 13
        1.69060
 23
       -0.35792
 33
       -0.54896
999
Fixed Shading:SHADING GROUP 1 FACE 62
  0
3DFACE
  8
Fixed Shading
 62
  9
 10
        1.68956
 20
       -0.36877
 30
       -0.94883
 11
        1.30319
 21
       -0.26526
 31
       -0.95064
 12
        1.30319
 22
       -0.25827
 32
       -0.55070
 13
        1.68956
 23
       -0.36179
 33
       -0.54889
999
Fixed Shading:Mir-SHADING GROUP 1 FACE 62
  0
3DFACE
  8
Fixed Shading
 62
  9
 10
        1.68956
 20
       -0.36179
 30
       -0.54889
 11
        1.30319
 21
       -0.25827
 31
       -0.55070
 12
        1.30319
 22
       -0.26526
 32
       -0.95064
 13
        1.68956
 23
       -0.36877
 33
       -0.94883
999
Fixed Shading:SHADING GROUP 1 FACE 63
  0
3DFACE
  8
Fixed Shading
 62
  9
 10
        1.69060
 20
       -0.36490
 30
       -0.94890
 11
        1.68956
 21
       -0.36179
 31
       -0.54889
 12
        1.69060
 22
       -0.35792
 32
       -0.54896
 13
        1.69060
 23
       -0.35792
 33
       -0.54896
999
Fixed Shading:Mir-SHADING GROUP 1 FACE 63
  0
3DFACE
  8
Fixed Shading
 62
  9
 10
        1.69060
 20
       -0.35792
 30
       -0.54896
 11
        1.68956
 21
       -0.36179
 31
       -0.54889
 12
        1.69060
 22
       -0.36490
 32
       -0.94890
 13
        1.69060
 23
       -0.36490
 33
       -0.94890
999
Fixed Shading:SHADING GROUP 1 FACE 64
  0
3DFACE
  8
Fixed Shading
 62
  9
 10
        1.30423
 20
       -0.26139
 30
       -0.95070
 11
        1.68956
 21
       -0.36877
 31
       -0.94883
 12
        1.69060
 22
       -0.36490
 32
       -0.94890
 13
        1.69060
 23
       -0.36490
 33
       -0.94890
999
Fixed Shading:Mir-SHADING GROUP 1 FACE 64
  0
3DFACE
  8
Fixed Shading
 62
  9
 10
        1.69060
 20
       -0.36490
 30
       -0.94890
 11
        1.68956
 21
       -0.36877
 31
       -0.94883
 12
        1.30423
 22
       -0.26139
 32
       -0.95070
 13
        1.30423
 23
       -0.26139
 33
       -0.95070
999
Fixed Shading:SHADING GROUP 1 FACE 65
  0
3DFACE
  8
Fixed Shading
 62
  9
 10
        1.30423
 20
       -0.25441
 30
       -0.55077
 11
        1.30319
 21
       -0.26526
 31
       -0.95064
 12
        1.30423
 22
       -0.26139
 32
       -0.95070
 13
        1.30423
 23
       -0.26139
 33
       -0.95070
999
Fixed Shading:Mir-SHADING GROUP 1 FACE 65
  0
3DFACE
  8
Fixed Shading
 62
  9
 10
        1.30423
 20
       -0.26139
 30
       -0.95070
 11
        1.30319
 21
       -0.26526
 31
       -0.95064
 12
        1.30423
 22
       -0.25441
 32
       -0.55077
 13
        1.30423
 23
       -0.25441
 33
       -0.55077
999
Fixed Shading:SHADING GROUP 1 FACE 66
  0
3DFACE
  8
Fixed Shading
 62
  9
 10
        1.69060
 20
       -0.35792
 30
       -0.54896
 11
        1.30319
 21
       -0.25827
 31
       -0.55070
 12
        1.30423
 22
       -0.25441
 32
       -0.55077
 13
        1.30423
 23
       -0.25441
 33
       -0.55077
999
Fixed Shading:Mir-SHADING GROUP 1 FACE 66
  0
3DFACE
  8
Fixed Shading
 62
  9
 10
        1.30423
 20
       -0.25441
 30
       -0.55077
 11
        1.30319
 21
       -0.25827
 31
       -0.55070
 12
        1.69060
 22
       -0.35792
 32
       -0.54896
 13
        1.69060
 23
       -0.35792
 33
       -0.54896
999
Fixed Shading:SHADING GROUP 1 FACE 67
  0
3DFACE
  8
Fixed Shading
 62
  9
 10
        1.19060
 20
       -0.35792
 30
       -0.54896
 11
        0.80423
 21
       -0.25441
 31
       -0.55077
 12
        0.80423
 22
       -0.26139
 32
       -0.95070
 13
        1.19060
 23
       -0.36490
 33
       -0.94890
999
Fixed Shading:Mir-SHADING GROUP 1 FACE 67
  0
3DFACE
  8
Fixed Shading
 62
  9
 10
        1.19060
 20
       -0.36490
 30
       -0.94890
 11
        0.80423
 21
       -0.26139
 31
       -0.95070
 12
        0.80423
 22
       -0.25441
 32
       -0.55077
 13
        1.19060
 23
       -0.35792
 33
       -0.54896
999
Fixed Shading:SHADING GROUP 1 FACE 68
  0
3DFACE
  8
Fixed Shading
 62
  9
 10
        1.18956
 20
       -0.36877
 30
       -0.94883
 11
        0.80319
 21
       -0.26526
 31
       -0.95064
 12
        0.80319
 22
       -0.25827
 32
       -0.55070
 13
        1.18956
 23
       -0.36179
 33
       -0.54889
999
Fixed Shading:Mir-SHADING GROUP 1 FACE 68
  0
3DFACE
  8
Fixed Shading
 62
  9
 10
        1.18956
 20
       -0.36179
 30
       -0.54889
 11
        0.80319
 21
       -0.25827
 31
       -0.55070
 12
        0.80319
 22
       -0.26526
 32
       -0.95064
 13
        1.18956
 23
       -0.36877
 33
       -0.94883
999
Fixed Shading:SHADING GROUP 1 FACE 69
  0
3DFACE
  8
Fixed Shading
 62
  9
 10
        1.19060
 20
       -0.36490
 30
       -0.94890
 11
        1.18956
 21
       -0.36179
 31
       -0.54889
 12
        1.19060
 22
       -0.35792
 32
       -0.54896
 13
        1.19060
 23
       -0.35792
 33
       -0.54896
999
Fixed Shading:Mir-SHADING GROUP 1 FACE 69
  0
3DFACE
  8
Fixed Shading
 62
  9
 10
        1.19060
 20
       -0.35792
 30
       -0.54896
 11
        1.18956
 21
       -0.36179
 31
       -0.54889
 12
        1.19060
 22
       -0.36490
 32
       -0.94890
 13
        1.19060
 23
       -0.36490
 33
       -0.94890
999
Fixed Shading:SHADING GROUP 1 FACE 70
  0
3DFACE
  8
Fixed Shading
 62
  9
 10
        0.80423
 20
       -0.26139
 30
       -0.95070
 11
        1.18956
 21
       -0.36877
 31
       -0.94883
 12
        1.19060
 22
       -0.36490
 32
       -0.94890
 13
        1.19060
 23
       -0.36490
 33
       -0.94890
999
Fixed Shading:Mir-SHADING GROUP 1 FACE 70
  0
3DFACE
  8
Fixed Shading
 62
  9
 10
        1.19060
 20
       -0.36490
 30
       -0.94890
 11
        1.18956
 21
       -0.36877
 31
       -0.94883
 12
        0.80423
 22
       -0.26139
 32
       -0.95070
 13
        0.80423
 23
       -0.26139
 33
       -0.95070
999
Fixed Shading:SHADING GROUP 1 FACE 71
  0
3DFACE
  8
Fixed Shading
 62
  9
 10
        0.80423
 20
       -0.25441
 30
       -0.55077
 11
        0.80319
 21
       -0.26526
 31
       -0.95064
 12
        0.80423
 22
       -0.26139
 32
       -0.95070
 13
        0.80423
 23
       -0.26139
 33
       -0.95070
999
Fixed Shading:Mir-SHADING GROUP 1 FACE 71
  0
3DFACE
  8
Fixed Shading
 62
  9
 10
        0.80423
 20
       -0.26139
 30
       -0.95070
 11
        0.80319
 21
       -0.26526
 31
       -0.95064
 12
        0.80423
 22
       -0.25441
 32
       -0.55077
 13
        0.80423
 23
       -0.25441
 33
       -0.55077
999
Fixed Shading:SHADING GROUP 1 FACE 72
  0
3DFACE
  8
Fixed Shading
 62
  9
 10
        1.19060
 20
       -0.35792
 30
       -0.54896
 11
        0.80319
 21
       -0.25827
 31
       -0.55070
 12
        0.80423
 22
       -0.25441
 32
       -0.55077
 13
        0.80423
 23
       -0.25441
 33
       -0.55077
999
Fixed Shading:Mir-SHADING GROUP 1 FACE 72
  0
3DFACE
  8
Fixed Shading
 62
  9
 10
        0.80423
 20
       -0.25441
 30
       -0.55077
 11
        0.80319
 21
       -0.25827
 31
       -0.55070
 12
        1.19060
 22
       -0.35792
 32
       -0.54896
 13
        1.19060
 23
       -0.35792
 33
       -0.54896
999
Fixed Shading:SHADING GROUP 1 FACE 73
  0
3DFACE
  8
Fixed Shading
 62
  9
 10
        0.69060
 20
       -0.35792
 30
       -0.54896
 11
        0.30423
 21
       -0.25441
 31
       -0.55077
 12
        0.30423
 22
       -0.26139
 32
       -0.95070
 13
        0.69060
 23
       -0.36490
 33
       -0.94890
999
Fixed Shading:Mir-SHADING GROUP 1 FACE 73
  0
3DFACE
  8
Fixed Shading
 62
  9
 10
        0.69060
 20
       -0.36490
 30
       -0.94890
 11
        0.30423
 21
       -0.26139
 31
       -0.95070
 12
        0.30423
 22
       -0.25441
 32
       -0.55077
 13
        0.69060
 23
       -0.35792
 33
       -0.54896
999
Fixed Shading:SHADING GROUP 1 FACE 74
  0
3DFACE
  8
Fixed Shading
 62
  9
 10
        0.68956
 20
       -0.36877
 30
       -0.94883
 11
        0.30319
 21
       -0.26526
 31
       -0.95064
 12
        0.30319
 22
       -0.25827
 32
       -0.55070
 13
        0.68956
 23
       -0.36179
 33
       -0.54889
999
Fixed Shading:Mir-SHADING GROUP 1 FACE 74
  0
3DFACE
  8
Fixed Shading
 62
  9
 10
        0.68956
 20
       -0.36179
 30
       -0.54889
 11
        0.30319
 21
       -0.25827
 31
       -0.55070
 12
        0.30319
 22
       -0.26526
 32
       -0.95064
 13
        0.68956
 23
       -0.36877
 33
       -0.94883
999
Fixed Shading:SHADING GROUP 1 FACE 75
  0
3DFACE
  8
Fixed Shading
 62
  9
 10
        0.69060
 20
       -0.36490
 30
       -0.94890
 11
        0.68956
 21
       -0.36179
 31
       -0.54889
 12
        0.69060
 22
       -0.35792
 32
       -0.54896
 13
        0.69060
 23
       -0.35792
 33
       -0.54896
999
Fixed Shading:Mir-SHADING GROUP 1 FACE 75
  0
3DFACE
  8
Fixed Shading
 62
  9
 10
        0.69060
 20
       -0.35792
 30
       -0.54896
 11
        0.68956
 21
       -0.36179
 31
       -0.54889
 12
        0.69060
 22
       -0.36490
 32
       -0.94890
 13
        0.69060
 23
       -0.36490
 33
       -0.94890
999
Fixed Shading:SHADING GROUP 1 FACE 76
  0
3DFACE
  8
Fixed Shading
 62
  9
 10
        0.30423
 20
       -0.26139
 30
       -0.95070
 11
        0.68956
 21
       -0.36877
 31
       -0.94883
 12
        0.69060
 22
       -0.36490
 32
       -0.94890
 13
        0.69060
 23
       -0.36490
 33
       -0.94890
999
Fixed Shading:Mir-SHADING GROUP 1 FACE 76
  0
3DFACE
  8
Fixed Shading
 62
  9
 10
        0.69060
 20
       -0.36490
 30
       -0.94890
 11
        0.68956
 21
       -0.36877
 31
       -0.94883
 12
        0.30423
 22
       -0.26139
 32
       -0.95070
 13
        0.30423
 23
       -0.26139
 33
       -0.95070
999
Fixed Shading:SHADING GROUP 1 FACE 77
  0
3DFACE
  8
Fixed Shading
 62
  9
 10
        0.30423
 20
       -0.25441
 30
       -0.55077
 11
        0.30319
 21
       -0.26526
 31
       -0.95064
 12
        0.30423
 22
       -0.26139
 32
       -0.95070
 13
        0.30423
 23
       -0.26139
 33
       -0.95070
999
Fixed Shading:Mir-SHADING GROUP 1 FACE 77
  0
3DFACE
  8
Fixed Shading
 62
  9
 10
        0.30423
 20
       -0.26139
 30
       -0.95070
 11
        0.30319
 21
       -0.26526
 31
       -0.95064
 12
        0.30423
 22
       -0.25441
 32
       -0.55077
 13
        0.30423
 23
       -0.25441
 33
       -0.55077
999
Fixed Shading:SHADING GROUP 1 FACE 78
  0
3DFACE
  8
Fixed Shading
 62
  9
 10
        0.69060
 20
       -0.35792
 30
       -0.54896
 11
        0.30319
 21
       -0.25827
 31
       -0.55070
 12
        0.30423
 22
       -0.25441
 32
       -0.55077
 13
        0.30423
 23
       -0.25441
 33
       -0.55077
999
Fixed Shading:Mir-SHADING GROUP 1 FACE 78
  0
3DFACE
  8
Fixed Shading
 62
  9
 10
        0.30423
 20
       -0.25441
 30
       -0.55077
 11
        0.30319
 21
       -0.25827
 31
       -0.55070
 12
        0.69060
 22
       -0.35792
 32
       -0.54896
 13
        0.69060
 23
       -0.35792
 33
       -0.54896
999
Fixed Shading:SHADING GROUP 1 FACE 79
  0
3DFACE
  8
Fixed Shading
 62
  9
 10
        0.19060
 20
       -0.35792
 30
       -0.54896
 11
       -0.19577
 21
       -0.25441
 31
       -0.55077
 12
       -0.19577
 22
       -0.26139
 32
       -0.95070
 13
        0.19060
 23
       -0.36490
 33
       -0.94890
999
Fixed Shading:Mir-SHADING GROUP 1 FACE 79
  0
3DFACE
  8
Fixed Shading
 62
  9
 10
        0.19060
 20
       -0.36490
 30
       -0.94890
 11
       -0.19577
 21
       -0.26139
 31
       -0.95070
 12
       -0.19577
 22
       -0.25441
 32
       -0.55077
 13
        0.19060
 23
       -0.35792
 33
       -0.54896
999
Fixed Shading:SHADING GROUP 1 FACE 80
  0
3DFACE
  8
Fixed Shading
 62
  9
 10
        0.18956
 20
       -0.36877
 30
       -0.94883
 11
       -0.19681
 21
       -0.26526
 31
       -0.95064
 12
       -0.19681
 22
       -0.25827
 32
       -0.55070
 13
        0.18956
 23
       -0.36179
 33
       -0.54889
999
Fixed Shading:Mir-SHADING GROUP 1 FACE 80
  0
3DFACE
  8
Fixed Shading
 62
  9
 10
        0.18956
 20
       -0.36179
 30
       -0.54889
 11
       -0.19681
 21
       -0.25827
 31
       -0.55070
 12
       -0.19681
 22
       -0.26526
 32
       -0.95064
 13
        0.18956
 23
       -0.36877
 33
       -0.94883
999
Fixed Shading:SHADING GROUP 1 FACE 81
  0
3DFACE
  8
Fixed Shading
 62
  9
 10
        0.19060
 20
       -0.36490
 30
       -0.94890
 11
        0.18956
 21
       -0.36179
 31
       -0.54889
 12
        0.19060
 22
       -0.35792
 32
       -0.54896
 13
        0.19060
 23
       -0.35792
 33
       -0.54896
999
Fixed Shading:Mir-SHADING GROUP 1 FACE 81
  0
3DFACE
  8
Fixed Shading
 62
  9
 10
        0.19060
 20
       -0.35792
 30
       -0.54896
 11
        0.18956
 21
       -0.36179
 31
       -0.54889
 12
        0.19060
 22
       -0.36490
 32
       -0.94890
 13
        0.19060
 23
       -0.36490
 33
       -0.94890
999
Fixed Shading:SHADING GROUP 1 FACE 82
  0
3DFACE
  8
Fixed Shading
 62
  9
 10
       -0.19577
 20
       -0.26139
 30
       -0.95070
 11
        0.18956
 21
       -0.36877
 31
       -0.94883
 12
        0.19060
 22
       -0.36490
 32
       -0.94890
 13
        0.19060
 23
       -0.36490
 33
       -0.94890
999
Fixed Shading:Mir-SHADING GROUP 1 FACE 82
  0
3DFACE
  8
Fixed Shading
 62
  9
 10
        0.19060
 20
       -0.36490
 30
       -0.94890
 11
        0.18956
 21
       -0.36877
 31
       -0.94883
 12
       -0.19577
 22
       -0.26139
 32
       -0.95070
 13
       -0.19577
 23
       -0.26139
 33
       -0.95070
999
Fixed Shading:SHADING GROUP 1 FACE 83
  0
3DFACE
  8
Fixed Shading
 62
  9
 10
       -0.19577
 20
       -0.25441
 30
       -0.55077
 11
       -0.19681
 21
       -0.26526
 31
       -0.95064
 12
       -0.19577
 22
       -0.26139
 32
       -0.95070
 13
       -0.19577
 23
       -0.26139
 33
       -0.95070
999
Fixed Shading:Mir-SHADING GROUP 1 FACE 83
  0
3DFACE
  8
Fixed Shading
 62
  9
 10
       -0.19577
 20
       -0.26139
 30
       -0.95070
 11
       -0.19681
 21
       -0.26526
 31
       -0.95064
 12
       -0.19577
 22
       -0.25441
 32
       -0.55077
 13
       -0.19577
 23
       -0.25441
 33
       -0.55077
999
Fixed Shading:SHADING GROUP 1 FACE 84
  0
3DFACE
  8
Fixed Shading
 62
  9
 10
        0.19060
 20
       -0.35792
 30
       -0.54896
 11
       -0.19681
 21
       -0.25827
 31
       -0.55070
 12
       -0.19577
 22
       -0.25441
 32
       -0.55077
 13
       -0.19577
 23
       -0.25441
 33
       -0.55077
999
Fixed Shading:Mir-SHADING GROUP 1 FACE 84
  0
3DFACE
  8
Fixed Shading
 62
  9
 10
       -0.19577
 20
       -0.25441
 30
       -0.55077
 11
       -0.19681
 21
       -0.25827
 31
       -0.55070
 12
        0.19060
 22
       -0.35792
 32
       -0.54896
 13
        0.19060
 23
       -0.35792
 33
       -0.54896
999
Fixed Shading:SHADING GROUP 1 FACE 85
  0
3DFACE
  8
Fixed Shading
 62
  9
 10
       -0.30940
 20
       -0.35792
 30
       -0.54896
 11
       -0.69577
 21
       -0.25441
 31
       -0.55077
 12
       -0.69577
 22
       -0.26139
 32
       -0.95070
 13
       -0.30940
 23
       -0.36490
 33
       -0.94890
999
Fixed Shading:Mir-SHADING GROUP 1 FACE 85
  0
3DFACE
  8
Fixed Shading
 62
  9
 10
       -0.30940
 20
       -0.36490
 30
       -0.94890
 11
       -0.69577
 21
       -0.26139
 31
       -0.95070
 12
       -0.69577
 22
       -0.25441
 32
       -0.55077
 13
       -0.30940
 23
       -0.35792
 33
       -0.54896
999
Fixed Shading:SHADING GROUP 1 FACE 86
  0
3DFACE
  8
Fixed Shading
 62
  9
 10
       -0.31044
 20
       -0.36877
 30
       -0.94883
 11
       -0.69681
 21
       -0.26526
 31
       -0.95064
 12
       -0.69681
 22
       -0.25827
 32
       -0.55070
 13
       -0.31044
 23
       -0.36179
 33
       -0.54889
999
Fixed Shading:Mir-SHADING GROUP 1 FACE 86
  0
3DFACE
  8
Fixed Shading
 62
  9
 10
       -0.31044
 20
       -0.36179
 30
       -0.54889
 11
       -0.69681
 21
       -0.25827
 31
       -0.55070
 12
       -0.69681
 22
       -0.26526
 32
       -0.95064
 13
       -0.31044
 23
       -0.36877
 33
       -0.94883
999
Fixed Shading:SHADING GROUP 1 FACE 87
  0
3DFACE
  8
Fixed Shading
 62
  9
 10
       -0.30940
 20
       -0.36490
 30
       -0.94890
 11
       -0.31044
 21
       -0.36179
 31
       -0.54889
 12
       -0.30940
 22
       -0.35792
 32
       -0.54896
 13
       -0.30940
 23
       -0.35792
 33
       -0.54896
999
Fixed Shading:Mir-SHADING GROUP 1 FACE 87
  0
3DFACE
  8
Fixed Shading
 62
  9
 10
       -0.30940
 20
       -0.35792
 30
       -0.54896
 11
       -0.31044
 21
       -0.36179
 31
       -0.54889
 12
       -0.30940
 22
       -0.36490
 32
       -0.94890
 13
       -0.30940
 23
       -0.36490
 33
       -0.94890
999
Fixed Shading:SHADING GROUP 1 FACE 88
  0
3DFACE
  8
Fixed Shading
 62
  9
 10
       -0.69577
 20
       -0.26139
 30
       -0.95070
 11
       -0.31044
 21
       -0.36877
 31
       -0.94883
 12
       -0.30940
 22
       -0.36490
 32
       -0.94890
 13
       -0.30940
 23
       -0.36490
 33
       -0.94890
999
Fixed Shading:Mir-SHADING GROUP 1 FACE 88
  0
3DFACE
  8
Fixed Shading
 62
  9
 10
       -0.30940
 20
       -0.36490
 30
       -0.94890
 11
       -0.31044
 21
       -0.36877
 31
       -0.94883
 12
       -0.69577
 22
       -0.26139
 32
       -0.95070
 13
       -0.69577
 23
       -0.26139
 33
       -0.95070
999
Fixed Shading:SHADING GROUP 1 FACE 89
  0
3DFACE
  8
Fixed Shading
 62
  9
 10
       -0.69577
 20
       -0.25441
 30
       -0.55077
 11
       -0.69681
 21
       -0.26526
 31
       -0.95064
 12
       -0.69577
 22
       -0.26139
 32
       -0.95070
 13
       -0.69577
 23
       -0.26139
 33
       -0.95070
999
Fixed Shading:Mir-SHADING GROUP 1 FACE 89
  0
3DFACE
  8
Fixed Shading
 62
  9
 10
       -0.69577
 20
       -0.26139
 30
       -0.95070
 11
       -0.69681
 21
       -0.26526
 31
       -0.95064
 12
       -0.69577
 22
       -0.25441
 32
       -0.55077
 13
       -0.69577
 23
       -0.25441
 33
       -0.55077
999
Fixed Shading:SHADING GROUP 1 FACE 90
  0
3DFACE
  8
Fixed Shading
 62
  9
 10
       -0.30940
 20
       -0.35792
 30
       -0.54896
 11
       -0.69681
 21
       -0.25827
 31
       -0.55070
 12
       -0.69577
 22
       -0.25441
 32
       -0.55077
 13
       -0.69577
 23
       -0.25441
 33
       -0.55077
999
Fixed Shading:Mir-SHADING GROUP 1 FACE 90
  0
3DFACE
  8
Fixed Shading
 62
  9
 10
       -0.69577
 20
       -0.25441
 30
       -0.55077
 11
       -0.69681
 21
       -0.25827
 31
       -0.55070
 12
       -0.30940
 22
       -0.35792
 32
       -0.54896
 13
       -0.30940
 23
       -0.35792
 33
       -0.54896
999
Fixed Shading:SHADING GROUP 1 FACE 91
  0
3DFACE
  8
Fixed Shading
 62
  9
 10
       -0.80940
 20
       -0.35792
 30
       -0.54896
 11
       -1.19577
 21
       -0.25441
 31
       -0.55077
 12
       -1.19577
 22
       -0.26139
 32
       -0.95070
 13
       -0.80940
 23
       -0.36490
 33
       -0.94890
999
Fixed Shading:Mir-SHADING GROUP 1 FACE 91
  0
3DFACE
  8
Fixed Shading
 62
  9
 10
       -0.80940
 20
       -0.36490
 30
       -0.94890
 11
       -1.19577
 21
       -0.26139
 31
       -0.95070
 12
       -1.19577
 22
       -0.25441
 32
       -0.55077
 13
       -0.80940
 23
       -0.35792
 33
       -0.54896
999
Fixed Shading:SHADING GROUP 1 FACE 92
  0
3DFACE
  8
Fixed Shading
 62
  9
 10
       -0.81044
 20
       -0.36877
 30
       -0.94883
 11
       -1.19681
 21
       -0.26526
 31
       -0.95064
 12
       -1.19681
 22
       -0.25827
 32
       -0.55070
 13
       -0.81044
 23
       -0.36179
 33
       -0.54889
999
Fixed Shading:Mir-SHADING GROUP 1 FACE 92
  0
3DFACE
  8
Fixed Shading
 62
  9
 10
       -0.81044
 20
       -0.36179
 30
       -0.54889
 11
       -1.19681
 21
       -0.25827
 31
       -0.55070
 12
       -1.19681
 22
       -0.26526
 32
       -0.95064
 13
       -0.81044
 23
       -0.36877
 33
       -0.94883
999
Fixed Shading:SHADING GROUP 1 FACE 93
  0
3DFACE
  8
Fixed Shading
 62
  9
 10
       -0.80940
 20
       -0.36490
 30
       -0.94890
 11
       -0.81044
 21
       -0.36179
 31
       -0.54889
 12
       -0.80940
 22
       -0.35792
 32
       -0.54896
 13
       -0.80940
 23
       -0.35792
 33
       -0.54896
999
Fixed Shading:Mir-SHADING GROUP 1 FACE 93
  0
3DFACE
  8
Fixed Shading
 62
  9
 10
       -0.80940
 20
       -0.35792
 30
       -0.54896
 11
       -0.81044
 21
       -0.36179
 31
       -0.54889
 12
       -0.80940
 22
       -0.36490
 32
       -0.94890
 13
       -0.80940
 23
       -0.36490
 33
       -0.94890
999
Fixed Shading:SHADING GROUP 1 FACE 94
  0
3DFACE
  8
Fixed Shading
 62
  9
 10
       -1.19577
 20
       -0.26139
 30
       -0.95070
 11
       -0.81044
 21
       -0.36877
 31
       -0.94883
 12
       -0.80940
 22
       -0.36490
 32
       -0.94890
 13
       -0.80940
 23
       -0.36490
 33
       -0.94890
999
Fixed Shading:Mir-SHADING GROUP 1 FACE 94
  0
3DFACE
  8
Fixed Shading
 62
  9
 10
       -0.80940
 20
       -0.36490
 30
       -0.94890
 11
       -0.81044
 21
       -0.36877
 31
       -0.94883
 12
       -1.19577
 22
       -0.26139
 32
       -0.95070
 13
       -1.19577
 23
       -0.26139
 33
       -0.95070
999
Fixed Shading:SHADING GROUP 1 FACE 95
  0
3DFACE
  8
Fixed Shading
 62
  9
 10
       -1.19577
 20
       -0.25441
 30
       -0.55077
 11
       -1.19681
 21
       -0.26526
 31
       -0.95064
 12
       -1.19577
 22
       -0.26139
 32
       -0.95070
 13
       -1.19577
 23
       -0.26139
 33
       -0.95070
999
Fixed Shading:Mir-SHADING GROUP 1 FACE 95
  0
3DFACE
  8
Fixed Shading
 62
  9
 10
       -1.19577
 20
       -0.26139
 30
       -0.95070
 11
       -1.19681
 21
       -0.26526
 31
       -0.95064
 12
       -1.19577
 22
       -0.25441
 32
       -0.55077
 13
       -1.19577
 23
       -0.25441
 33
       -0.55077
999
Fixed Shading:SHADING GROUP 1 FACE 96
  0
3DFACE
  8
Fixed Shading
 62
  9
 10
       -0.80940
 20
       -0.35792
 30
       -0.54896
 11
       -1.19681
 21
       -0.25827
 31
       -0.55070
 12
       -1.19577
 22
       -0.25441
 32
       -0.55077
 13
       -1.19577
 23
       -0.25441
 33
       -0.55077
999
Fixed Shading:Mir-SHADING GROUP 1 FACE 96
  0
3DFACE
  8
Fixed Shading
 62
  9
 10
       -1.19577
 20
       -0.25441
 30
       -0.55077
 11
       -1.19681
 21
       -0.25827
 31
       -0.55070
 12
       -0.80940
 22
       -0.35792
 32
       -0.54896
 13
       -0.80940
 23
       -0.35792
 33
       -0.54896
999
Fixed Shading:SHADING GROUP 1 FACE 97
  0
3DFACE
  8
Fixed Shading
 62
  9
 10
       -1.30940
 20
       -0.35792
 30
       -0.54896
 11
       -1.69577
 21
       -0.25441
 31
       -0.55077
 12
       -1.69577
 22
       -0.26139
 32
       -0.95070
 13
       -1.30940
 23
       -0.36490
 33
       -0.94890
999
Fixed Shading:Mir-SHADING GROUP 1 FACE 97
  0
3DFACE
  8
Fixed Shading
 62
  9
 10
       -1.30940
 20
       -0.36490
 30
       -0.94890
 11
       -1.69577
 21
       -0.26139
 31
       -0.95070
 12
       -1.69577
 22
       -0.25441
 32
       -0.55077
 13
       -1.30940
 23
       -0.35792
 33
       -0.54896
999
Fixed Shading:SHADING GROUP 1 FACE 98
  0
3DFACE
  8
Fixed Shading
 62
  9
 10
       -1.31044
 20
       -0.36877
 30
       -0.94883
 11
       -1.69681
 21
       -0.26526
 31
       -0.95064
 12
       -1.69681
 22
       -0.25827
 32
       -0.55070
 13
       -1.31044
 23
       -0.36179
 33
       -0.54889
999
Fixed Shading:Mir-SHADING GROUP 1 FACE 98
  0
3DFACE
  8
Fixed Shading
 62
  9
 10
       -1.31044
 20
       -0.36179
 30
       -0.54889
 11
       -1.69681
 21
       -0.25827
 31
       -0.55070
 12
       -1.69681
 22
       -0.26526
 32
       -0.95064
 13
       -1.31044
 23
       -0.36877
 33
       -0.94883
999
Fixed Shading:SHADING GROUP 1 FACE 99
  0
3DFACE
  8
Fixed Shading
 62
  9
 10
       -1.30940
 20
       -0.36490
 30
       -0.94890
 11
       -1.31044
 21
       -0.36179
 31
       -0.54889
 12
       -1.30940
 22
       -0.35792
 32
       -0.54896
 13
       -1.30940
 23
       -0.35792
 33
       -0.54896
999
Fixed Shading:Mir-SHADING GROUP 1 FACE 99
  0
3DFACE
  8
Fixed Shading
 62
  9
 10
       -1.30940
 20
       -0.35792
 30
       -0.54896
 11
       -1.31044
 21
       -0.36179
 31
       -0.54889
 12
       -1.30940
 22
       -0.36490
 32
       -0.94890
 13
       -1.30940
 23
       -0.36490
 33
       -0.94890
999
Fixed Shading:SHADING GROUP 1 FACE 100
  0
3DFACE
  8
Fixed Shading
 62
  9
 10
       -1.69577
 20
       -0.26139
 30
       -0.95070
 11
       -1.31044
 21
       -0.36877
 31
       -0.94883
 12
       -1.30940
 22
       -0.36490
 32
       -0.94890
 13
       -1.30940
 23
       -0.36490
 33
       -0.94890
999
Fixed Shading:Mir-SHADING GROUP 1 FACE 100
  0
3DFACE
  8
Fixed Shading
 62
  9
 10
       -1.30940
 20
       -0.36490
 30
       -0.94890
 11
       -1.31044
 21
       -0.36877
 31
       -0.94883
 12
       -1.69577
 22
       -0.26139
 32
       -0.95070
 13
       -1.69577
 23
       -0.26139
 33
       -0.95070
999
Fixed Shading:SHADING GROUP 1 FACE 101
  0
3DFACE
  8
Fixed Shading
 62
  9
 10
       -1.69577
 20
       -0.25441
 30
       -0.55077
 11
       -1.69681
 21
       -0.26526
 31
       -0.95064
 12
       -1.69577
 22
       -0.26139
 32
       -0.95070
 13
       -1.69577
 23
       -0.26139
 33
       -0.95070
999
Fixed Shading:Mir-SHADING GROUP 1 FACE 101
  0
3DFACE
  8
Fixed Shading
 62
  9
 10
       -1.69577
 20
       -0.26139
 30
       -0.95070
 11
       -1.69681
 21
       -0.26526
 31
       -0.95064
 12
       -1.69577
 22
       -0.25441
 32
       -0.55077
 13
       -1.69577
 23
       -0.25441
 33
       -0.55077
999
Fixed Shading:SHADING GROUP 1 FACE 102
  0
3DFACE
  8
Fixed Shading
 62
  9
 10
       -1.30940
 20
       -0.35792
 30
       -0.54896
 11
       -1.69681
 21
       -0.25827
 31
       -0.55070
 12
       -1.69577
 22
       -0.25441
 32
       -0.55077
 13
       -1.69577
 23
       -0.25441
 33
       -0.55077
999
Fixed Shading:Mir-SHADING GROUP 1 FACE 102
  0
3DFACE
  8
Fixed Shading
 62
  9
 10
       -1.69577
 20
       -0.25441
 30
       -0.55077
 11
       -1.69681
 21
       -0.25827
 31
       -0.55070
 12
       -1.30940
 22
       -0.35792
 32
       -0.54896
 13
       -1.30940
 23
       -0.35792
 33
       -0.54896
999
Fixed Shading:SHADING GROUP 1 FACE 103
  0
3DFACE
  8
Fixed Shading
 62
  9
 10
       -1.80940
 20
       -0.35792
 30
       -0.54896
 11
       -2.19577
 21
       -0.25441
 31
       -0.55077
 12
       -2.19577
 22
       -0.26139
 32
       -0.95070
 13
       -1.80940
 23
       -0.36490
 33
       -0.94890
999
Fixed Shading:Mir-SHADING GROUP 1 FACE 103
  0
3DFACE
  8
Fixed Shading
 62
  9
 10
       -1.80940
 20
       -0.36490
 30
       -0.94890
 11
       -2.19577
 21
       -0.26139
 31
       -0.95070
 12
       -2.19577
 22
       -0.25441
 32
       -0.55077
 13
       -1.80940
 23
       -0.35792
 33
       -0.54896
999
Fixed Shading:SHADING GROUP 1 FACE 104
  0
3DFACE
  8
Fixed Shading
 62
  9
 10
       -1.81044
 20
       -0.36877
 30
       -0.94883
 11
       -2.19681
 21
       -0.26526
 31
       -0.95064
 12
       -2.19681
 22
       -0.25827
 32
       -0.55070
 13
       -1.81044
 23
       -0.36179
 33
       -0.54889
999
Fixed Shading:Mir-SHADING GROUP 1 FACE 104
  0
3DFACE
  8
Fixed Shading
 62
  9
 10
       -1.81044
 20
       -0.36179
 30
       -0.54889
 11
       -2.19681
 21
       -0.25827
 31
       -0.55070
 12
       -2.19681
 22
       -0.26526
 32
       -0.95064
 13
       -1.81044
 23
       -0.36877
 33
       -0.94883
999
Fixed Shading:SHADING GROUP 1 FACE 105
  0
3DFACE
  8
Fixed Shading
 62
  9
 10
       -1.80940
 20
       -0.36490
 30
       -0.94890
 11
       -1.81044
 21
       -0.36179
 31
       -0.54889
 12
       -1.80940
 22
       -0.35792
 32
       -0.54896
 13
       -1.80940
 23
       -0.35792
 33
       -0.54896
999
Fixed Shading:Mir-SHADING GROUP 1 FACE 105
  0
3DFACE
  8
Fixed Shading
 62
  9
 10
       -1.80940
 20
       -0.35792
 30
       -0.54896
 11
       -1.81044
 21
       -0.36179
 31
       -0.54889
 12
       -1.80940
 22
       -0.36490
 32
       -0.94890
 13
       -1.80940
 23
       -0.36490
 33
       -0.94890
999
Fixed Shading:SHADING GROUP 1 FACE 106
  0
3DFACE
  8
Fixed Shading
 62
  9
 10
       -2.19577
 20
       -0.26139
 30
       -0.95070
 11
       -1.81044
 21
       -0.36877
 31
       -0.94883
 12
       -1.80940
 22
       -0.36490
 32
       -0.94890
 13
       -1.80940
 23
       -0.36490
 33
       -0.94890
999
Fixed Shading:Mir-SHADING GROUP 1 FACE 106
  0
3DFACE
  8
Fixed Shading
 62
  9
 10
       -1.80940
 20
       -0.36490
 30
       -0.94890
 11
       -1.81044
 21
       -0.36877
 31
       -0.94883
 12
       -2.19577
 22
       -0.26139
 32
       -0.95070
 13
       -2.19577
 23
       -0.26139
 33
       -0.95070
999
Fixed Shading:SHADING GROUP 1 FACE 107
  0
3DFACE
  8
Fixed Shading
 62
  9
 10
       -2.19577
 20
       -0.25441
 30
       -0.55077
 11
       -2.19681
 21
       -0.26526
 31
       -0.95064
 12
       -2.19577
 22
       -0.26139
 32
       -0.95070
 13
       -2.19577
 23
       -0.26139
 33
       -0.95070
999
Fixed Shading:Mir-SHADING GROUP 1 FACE 107
  0
3DFACE
  8
Fixed Shading
 62
  9
 10
       -2.19577
 20
       -0.26139
 30
       -0.95070
 11
       -2.19681
 21
       -0.26526
 31
       -0.95064
 12
       -2.19577
 22
       -0.25441
 32
       -0.55077
 13
       -2.19577
 23
       -0.25441
 33
       -0.55077
999
Fixed Shading:SHADING GROUP 1 FACE 108
  0
3DFACE
  8
Fixed Shading
 62
  9
 10
       -1.80940
 20
       -0.35792
 30
       -0.54896
 11
       -2.19681
 21
       -0.25827
 31
       -0.55070
 12
       -2.19577
 22
       -0.25441
 32
       -0.55077
 13
       -2.19577
 23
       -0.25441
 33
       -0.55077
999
Fixed Shading:Mir-SHADING GROUP 1 FACE 108
  0
3DFACE
  8
Fixed Shading
 62
  9
 10
       -2.19577
 20
       -0.25441
 30
       -0.55077
 11
       -2.19681
 21
       -0.25827
 31
       -0.55070
 12
       -1.80940
 22
       -0.35792
 32
       -0.54896
 13
       -1.80940
 23
       -0.35792
 33
       -0.54896
999
Fixed Shading:SHADING GROUP 1 FACE 109
  0
3DFACE
  8
Fixed Shading
 62
  9
 10
        2.19060
 20
       -0.20201
 30
       -0.06515
 11
        1.80423
 21
       -0.12881
 31
       -0.13835
 12
        1.80423
 22
       -0.41165
 32
       -0.42119
 13
        2.19060
 23
       -0.48485
 33
       -0.34799
999
Fixed Shading:Mir-SHADING GROUP 1 FACE 109
  0
3DFACE
  8
Fixed Shading
 62
  9
 10
        2.19060
 20
       -0.48485
 30
       -0.34799
 11
        1.80423
 21
       -0.41165
 31
       -0.42119
 12
        1.80423
 22
       -0.12881
 32
       -0.13835
 13
        2.19060
 23
       -0.20201
 33
       -0.06515
999
Fixed Shading:SHADING GROUP 1 FACE 110
  0
3DFACE
  8
Fixed Shading
 62
  9
 10
        2.18956
 20
       -0.48759
 30
       -0.34526
 11
        1.80319
 21
       -0.41438
 31
       -0.41846
 12
        1.80319
 22
       -0.13154
 32
       -0.13562
 13
        2.18956
 23
       -0.20474
 33
       -0.06241
999
Fixed Shading:Mir-SHADING GROUP 1 FACE 110
  0
3DFACE
  8
Fixed Shading
 62
  9
 10
        2.18956
 20
       -0.20474
 30
       -0.06241
 11
        1.80319
 21
       -0.13154
 31
       -0.13562
 12
        1.80319
 22
       -0.41438
 32
       -0.41846
 13
        2.18956
 23
       -0.48759
 33
       -0.34526
999
Fixed Shading:SHADING GROUP 1 FACE 111
  0
3DFACE
  8
Fixed Shading
 62
  9
 10
        2.19060
 20
       -0.48485
 30
       -0.34799
 11
        2.18956
 21
       -0.20474
 31
       -0.06241
 12
        2.19060
 22
       -0.20201
 32
       -0.06515
 13
        2.19060
 23
       -0.20201
 33
       -0.06515
999
Fixed Shading:Mir-SHADING GROUP 1 FACE 111
  0
3DFACE
  8
Fixed Shading
 62
  9
 10
        2.19060
 20
       -0.20201
 30
       -0.06515
 11
        2.18956
 21
       -0.20474
 31
       -0.06241
 12
        2.19060
 22
       -0.48485
 32
       -0.34799
 13
        2.19060
 23
       -0.48485
 33
       -0.34799
999
Fixed Shading:SHADING GROUP 1 FACE 112
  0
3DFACE
  8
Fixed Shading
 62
  9
 10
        1.80423
 20
       -0.41165
 30
       -0.42119
 11
        2.18956
 21
       -0.48759
 31
       -0.34526
 12
        2.19060
 22
       -0.48485
 32
       -0.34799
 13
        2.19060
 23
       -0.48485
 33
       -0.34799
999
Fixed Shading:Mir-SHADING GROUP 1 FACE 112
  0
3DFACE
  8
Fixed Shading
 62
  9
 10
        2.19060
 20
       -0.48485
 30
       -0.34799
 11
        2.18956
 21
       -0.48759
 31
       -0.34526
 12
        1.80423
 22
       -0.41165
 32
       -0.42119
 13
        1.80423
 23
       -0.41165
 33
       -0.42119
999
Fixed Shading:SHADING GROUP 1 FACE 113
  0
3DFACE
  8
Fixed Shading
 62
  9
 10
        1.80423
 20
       -0.12881
 30
       -0.13835
 11
        1.80319
 21
       -0.41438
 31
       -0.41846
 12
        1.80423
 22
       -0.41165
 32
       -0.42119
 13
        1.80423
 23
       -0.41165
 33
       -0.42119
999
Fixed Shading:Mir-SHADING GROUP 1 FACE 113
  0
3DFACE
  8
Fixed Shading
 62
  9
 10
        1.80423
 20
       -0.41165
 30
       -0.42119
 11
        1.80319
 21
       -0.41438
 31
       -0.41846
 12
        1.80423
 22
       -0.12881
 32
       -0.13835
 13
        1.80423
 23
       -0.12881
 33
       -0.13835
999
Fixed Shading:SHADING GROUP 1 FACE 114
  0
3DFACE
  8
Fixed Shading
 62
  9
 10
        2.19060
 20
       -0.20201
 30
       -0.06515
 11
        1.80319
 21
       -0.13154
 31
       -0.13562
 12
        1.80423
 22
       -0.12881
 32
       -0.13835
 13
        1.80423
 23
       -0.12881
 33
       -0.13835
999
Fixed Shading:Mir-SHADING GROUP 1 FACE 114
  0
3DFACE
  8
Fixed Shading
 62
  9
 10
        1.80423
 20
       -0.12881
 30
       -0.13835
 11
        1.80319
 21
       -0.13154
 31
       -0.13562
 12
        2.19060
 22
       -0.20201
 32
       -0.06515
 13
        2.19060
 23
       -0.20201
 33
       -0.06515
999
Fixed Shading:SHADING GROUP 1 FACE 115
  0
3DFACE
  8
Fixed Shading
 62
  9
 10
        1.69060
 20
       -0.20201
 30
       -0.06515
 11
        1.30423
 21
       -0.12881
 31
       -0.13835
 12
        1.30423
 22
       -0.41165
 32
       -0.42119
 13
        1.69060
 23
       -0.48485
 33
       -0.34799
999
Fixed Shading:Mir-SHADING GROUP 1 FACE 115
  0
3DFACE
  8
Fixed Shading
 62
  9
 10
        1.69060
 20
       -0.48485
 30
       -0.34799
 11
        1.30423
 21
       -0.41165
 31
       -0.42119
 12
        1.30423
 22
       -0.12881
 32
       -0.13835
 13
        1.69060
 23
       -0.20201
 33
       -0.06515
999
Fixed Shading:SHADING GROUP 1 FACE 116
  0
3DFACE
  8
Fixed Shading
 62
  9
 10
        1.68956
 20
       -0.48759
 30
       -0.34526
 11
        1.30319
 21
       -0.41438
 31
       -0.41846
 12
        1.30319
 22
       -0.13154
 32
       -0.13562
 13
        1.68956
 23
       -0.20474
 33
       -0.06241
999
Fixed Shading:Mir-SHADING GROUP 1 FACE 116
  0
3DFACE
  8
Fixed Shading
 62
  9
 10
        1.68956
 20
       -0.20474
 30
       -0.06241
 11
        1.30319
 21
       -0.13154
 31
       -0.13562
 12
        1.30319
 22
       -0.41438
 32
       -0.41846
 13
        1.68956
 23
       -0.48759
 33
       -0.34526
999
Fixed Shading:SHADING GROUP 1 FACE 117
  0
3DFACE
  8
Fixed Shading
 62
  9
 10
        1.69060
 20
       -0.48485
 30
       -0.34799
 11
        1.68956
 21
       -0.20474
 31
       -0.06241
 12
        1.69060
 22
       -0.20201
 32
       -0.06515
 13
        1.69060
 23
       -0.20201
 33
       -0.06515
999
Fixed Shading:Mir-SHADING GROUP 1 FACE 117
  0
3DFACE
  8
Fixed Shading
 62
  9
 10
        1.69060
 20
       -0.20201
 30
       -0.06515
 11
        1.68956
 21
       -0.20474
 31
       -0.06241
 12
        1.69060
 22
       -0.48485
 32
       -0.34799
 13
        1.69060
 23
       -0.48485
 33
       -0.34799
999
Fixed Shading:SHADING GROUP 1 FACE 118
  0
3DFACE
  8
Fixed Shading
 62
  9
 10
        1.30423
 20
       -0.41165
 30
       -0.42119
 11
        1.68956
 21
       -0.48759
 31
       -0.34526
 12
        1.69060
 22
       -0.48485
 32
       -0.34799
 13
        1.69060
 23
       -0.48485
 33
       -0.34799
999
Fixed Shading:Mir-SHADING GROUP 1 FACE 118
  0
3DFACE
  8
Fixed Shading
 62
  9
 10
        1.69060
 20
       -0.48485
 30
       -0.34799
 11
        1.68956
 21
       -0.48759
 31
       -0.34526
 12
        1.30423
 22
       -0.41165
 32
       -0.42119
 13
        1.30423
 23
       -0.41165
 33
       -0.42119
999
Fixed Shading:SHADING GROUP 1 FACE 119
  0
3DFACE
  8
Fixed Shading
 62
  9
 10
        1.30423
 20
       -0.12881
 30
       -0.13835
 11
        1.30319
 21
       -0.41438
 31
       -0.41846
 12
        1.30423
 22
       -0.41165
 32
       -0.42119
 13
        1.30423
 23
       -0.41165
 33
       -0.42119
999
Fixed Shading:Mir-SHADING GROUP 1 FACE 119
  0
3DFACE
  8
Fixed Shading
 62
  9
 10
        1.30423
 20
       -0.41165
 30
       -0.42119
 11
        1.30319
 21
       -0.41438
 31
       -0.41846
 12
        1.30423
 22
       -0.12881
 32
       -0.13835
 13
        1.30423
 23
       -0.12881
 33
       -0.13835
999
Fixed Shading:SHADING GROUP 1 FACE 120
  0
3DFACE
  8
Fixed Shading
 62
  9
 10
        1.69060
 20
       -0.20201
 30
       -0.06515
 11
        1.30319
 21
       -0.13154
 31
       -0.13562
 12
        1.30423
 22
       -0.12881
 32
       -0.13835
 13
        1.30423
 23
       -0.12881
 33
       -0.13835
999
Fixed Shading:Mir-SHADING GROUP 1 FACE 120
  0
3DFACE
  8
Fixed Shading
 62
  9
 10
        1.30423
 20
       -0.12881
 30
       -0.13835
 11
        1.30319
 21
       -0.13154
 31
       -0.13562
 12
        1.69060
 22
       -0.20201
 32
       -0.06515
 13
        1.69060
 23
       -0.20201
 33
       -0.06515
999
Fixed Shading:SHADING GROUP 1 FACE 121
  0
3DFACE
  8
Fixed Shading
 62
  9
 10
        1.19060
 20
       -0.20201
 30
       -0.06515
 11
        0.80423
 21
       -0.12881
 31
       -0.13835
 12
        0.80423
 22
       -0.41165
 32
       -0.42119
 13
        1.19060
 23
       -0.48485
 33
       -0.34799
999
Fixed Shading:Mir-SHADING GROUP 1 FACE 121
  0
3DFACE
  8
Fixed Shading
 62
  9
 10
        1.19060
 20
       -0.48485
 30
       -0.34799
 11
        0.80423
 21
       -0.41165
 31
       -0.42119
 12
        0.80423
 22
       -0.12881
 32
       -0.13835
 13
[...]
 32
        1.31490
 13
        0.19060
 23
       -0.10110
 33
        1.31490
999
Fixed Shading:Mir-SHADING GROUP 1 FACE 297
  0
3DFACE
  8
Fixed Shading
 62
  9
 10
        0.19060
 20
       -0.10110
 30
        1.31490
 11
        0.18956
 21
       -0.10117
 31
        1.31877
 12
        0.19060
 22
       -0.50104
 32
        1.30792
 13
        0.19060
 23
       -0.50104
 33
        1.30792
999
Fixed Shading:SHADING GROUP 1 FACE 298
  0
3DFACE
  8
Fixed Shading
 62
  9
 10
       -0.19577
 20
       -0.49923
 30
        1.20441
 11
        0.18956
 21
       -0.50111
 31
        1.31179
 12
        0.19060
 22
       -0.50104
 32
        1.30792
 13
        0.19060
 23
       -0.50104
 33
        1.30792
999
Fixed Shading:Mir-SHADING GROUP 1 FACE 298
  0
3DFACE
  8
Fixed Shading
 62
  9
 10
        0.19060
 20
       -0.50104
 30
        1.30792
 11
        0.18956
 21
       -0.50111
 31
        1.31179
 12
       -0.19577
 22
       -0.49923
 32
        1.20441
 13
       -0.19577
 23
       -0.49923
 33
        1.20441
999
Fixed Shading:SHADING GROUP 1 FACE 299
  0
3DFACE
  8
Fixed Shading
 62
  9
 10
       -0.19577
 20
       -0.09930
 30
        1.21139
 11
       -0.19681
 21
       -0.49930
 31
        1.20827
 12
       -0.19577
 22
       -0.49923
 32
        1.20441
 13
       -0.19577
 23
       -0.49923
 33
        1.20441
999
Fixed Shading:Mir-SHADING GROUP 1 FACE 299
  0
3DFACE
  8
Fixed Shading
 62
  9
 10
       -0.19577
 20
       -0.49923
 30
        1.20441
 11
       -0.19681
 21
       -0.49930
 31
        1.20827
 12
       -0.19577
 22
       -0.09930
 32
        1.21139
 13
       -0.19577
 23
       -0.09930
 33
        1.21139
999
Fixed Shading:SHADING GROUP 1 FACE 300
  0
3DFACE
  8
Fixed Shading
 62
  9
 10
        0.19060
 20
       -0.10110
 30
        1.31490
 11
       -0.19681
 21
       -0.09936
 31
        1.21526
 12
       -0.19577
 22
       -0.09930
 32
        1.21139
 13
       -0.19577
 23
       -0.09930
 33
        1.21139
999
Fixed Shading:Mir-SHADING GROUP 1 FACE 300
  0
3DFACE
  8
Fixed Shading
 62
  9
 10
       -0.19577
 20
       -0.09930
 30
        1.21139
 11
       -0.19681
 21
       -0.09936
 31
        1.21526
 12
        0.19060
 22
       -0.10110
 32
        1.31490
 13
        0.19060
 23
       -0.10110
 33
        1.31490
999
Fixed Shading:SHADING GROUP 1 FACE 301
  0
3DFACE
  8
Fixed Shading
 62
  9
 10
       -0.30940
 20
       -0.10110
 30
        1.31490
 11
       -0.69577
 21
       -0.09930
 31
        1.21139
 12
       -0.69577
 22
       -0.49923
 32
        1.20441
 13
       -0.30940
 23
       -0.50104
 33
        1.30792
999
Fixed Shading:Mir-SHADING GROUP 1 FACE 301
  0
3DFACE
  8
Fixed Shading
 62
  9
 10
       -0.30940
 20
       -0.50104
 30
        1.30792
 11
       -0.69577
 21
       -0.49923
 31
        1.20441
 12
       -0.69577
 22
       -0.09930
 32
        1.21139
 13
       -0.30940
 23
       -0.10110
 33
        1.31490
999
Fixed Shading:SHADING GROUP 1 FACE 302
  0
3DFACE
  8
Fixed Shading
 62
  9
 10
       -0.31044
 20
       -0.50111
 30
        1.31179
 11
       -0.69681
 21
       -0.49930
 31
        1.20827
 12
       -0.69681
 22
       -0.09936
 32
        1.21526
 13
       -0.31044
 23
       -0.10117
 33
        1.31877
999
Fixed Shading:Mir-SHADING GROUP 1 FACE 302
  0
3DFACE
  8
Fixed Shading
 62
  9
 10
       -0.31044
 20
       -0.10117
 30
        1.31877
 11
       -0.69681
 21
       -0.09936
 31
        1.21526
 12
       -0.69681
 22
       -0.49930
 32
        1.20827
 13
       -0.31044
 23
       -0.50111
 33
        1.31179
999
Fixed Shading:SHADING GROUP 1 FACE 303
  0
3DFACE
  8
Fixed Shading
 62
  9
 10
       -0.30940
 20
       -0.50104
 30
        1.30792
 11
       -0.31044
 21
       -0.10117
 31
        1.31877
 12
       -0.30940
 22
       -0.10110
 32
        1.31490
 13
       -0.30940
 23
       -0.10110
 33
        1.31490
999
Fixed Shading:Mir-SHADING GROUP 1 FACE 303
  0
3DFACE
  8
Fixed Shading
 62
  9
 10
       -0.30940
 20
       -0.10110
 30
        1.31490
 11
       -0.31044
 21
       -0.10117
 31
        1.31877
 12
       -0.30940
 22
       -0.50104
 32
        1.30792
 13
       -0.30940
 23
       -0.50104
 33
        1.30792
999
Fixed Shading:SHADING GROUP 1 FACE 304
  0
3DFACE
  8
Fixed Shading
 62
  9
 10
       -0.69577
 20
       -0.49923
 30
        1.20441
 11
       -0.31044
 21
       -0.50111
 31
        1.31179
 12
       -0.30940
 22
       -0.50104
 32
        1.30792
 13
       -0.30940
 23
       -0.50104
 33
        1.30792
999
Fixed Shading:Mir-SHADING GROUP 1 FACE 304
  0
3DFACE
  8
Fixed Shading
 62
  9
 10
       -0.30940
 20
       -0.50104
 30
        1.30792
 11
       -0.31044
 21
       -0.50111
 31
        1.31179
 12
       -0.69577
 22
       -0.49923
 32
        1.20441
 13
       -0.69577
 23
       -0.49923
 33
        1.20441
999
Fixed Shading:SHADING GROUP 1 FACE 305
  0
3DFACE
  8
Fixed Shading
 62
  9
 10
       -0.69577
 20
       -0.09930
 30
        1.21139
 11
       -0.69681
 21
       -0.49930
 31
        1.20827
 12
       -0.69577
 22
       -0.49923
 32
        1.20441
 13
       -0.69577
 23
       -0.49923
 33
        1.20441
999
Fixed Shading:Mir-SHADING GROUP 1 FACE 305
  0
3DFACE
  8
Fixed Shading
 62
  9
 10
       -0.69577
 20
       -0.49923
 30
        1.20441
 11
       -0.69681
 21
       -0.49930
 31
        1.20827
 12
       -0.69577
 22
       -0.09930
 32
        1.21139
 13
       -0.69577
 23
       -0.09930
 33
        1.21139
999
Fixed Shading:SHADING GROUP 1 FACE 306
  0
3DFACE
  8
Fixed Shading
 62
  9
 10
       -0.30940
 20
       -0.10110
 30
        1.31490
 11
       -0.69681
 21
       -0.09936
 31
        1.21526
 12
       -0.69577
 22
       -0.09930
 32
        1.21139
 13
       -0.69577
 23
       -0.09930
 33
        1.21139
999
Fixed Shading:Mir-SHADING GROUP 1 FACE 306
  0
3DFACE
  8
Fixed Shading
 62
  9
 10
       -0.69577
 20
       -0.09930
 30
        1.21139
 11
       -0.69681
 21
       -0.09936
 31
        1.21526
 12
       -0.30940
 22
       -0.10110
 32
        1.31490
 13
       -0.30940
 23
       -0.10110
 33
        1.31490
999
Fixed Shading:SHADING GROUP 1 FACE 307
  0
3DFACE
  8
Fixed Shading
 62
  9
 10
       -0.80940
 20
       -0.10110
 30
        1.31490
 11
       -1.19577
 21
       -0.09930
 31
        1.21139
 12
       -1.19577
 22
       -0.49923
 32
        1.20441
 13
       -0.80940
 23
       -0.50104
 33
        1.30792
999
Fixed Shading:Mir-SHADING GROUP 1 FACE 307
  0
3DFACE
  8
Fixed Shading
 62
  9
 10
       -0.80940
 20
       -0.50104
 30
        1.30792
 11
       -1.19577
 21
       -0.49923
 31
        1.20441
 12
       -1.19577
 22
       -0.09930
 32
        1.21139
 13
       -0.80940
 23
       -0.10110
 33
        1.31490
999
Fixed Shading:SHADING GROUP 1 FACE 308
  0
3DFACE
  8
Fixed Shading
 62
  9
 10
       -0.81044
 20
       -0.50111
 30
        1.31179
 11
       -1.19681
 21
       -0.49930
 31
        1.20827
 12
       -1.19681
 22
       -0.09936
 32
        1.21526
 13
       -0.81044
 23
       -0.10117
 33
        1.31877
999
Fixed Shading:Mir-SHADING GROUP 1 FACE 308
  0
3DFACE
  8
Fixed Shading
 62
  9
 10
       -0.81044
 20
       -0.10117
 30
        1.31877
 11
       -1.19681
 21
       -0.09936
 31
        1.21526
 12
       -1.19681
 22
       -0.49930
 32
        1.20827
 13
       -0.81044
 23
       -0.50111
 33
        1.31179
999
Fixed Shading:SHADING GROUP 1 FACE 309
  0
3DFACE
  8
Fixed Shading
 62
  9
 10
       -0.80940
 20
       -0.50104
 30
        1.30792
 11
       -0.81044
 21
       -0.10117
 31
        1.31877
 12
       -0.80940
 22
       -0.10110
 32
        1.31490
 13
       -0.80940
 23
       -0.10110
 33
        1.31490
999
Fixed Shading:Mir-SHADING GROUP 1 FACE 309
  0
3DFACE
  8
Fixed Shading
 62
  9
 10
       -0.80940
 20
       -0.10110
 30
        1.31490
 11
       -0.81044
 21
       -0.10117
 31
        1.31877
 12
       -0.80940
 22
       -0.50104
 32
        1.30792
 13
       -0.80940
 23
       -0.50104
 33
        1.30792
999
Fixed Shading:SHADING GROUP 1 FACE 310
  0
3DFACE
  8
Fixed Shading
 62
  9
 10
       -1.19577
 20
       -0.49923
 30
        1.20441
 11
       -0.81044
 21
       -0.50111
 31
        1.31179
 12
       -0.80940
 22
       -0.50104
 32
        1.30792
 13
       -0.80940
 23
       -0.50104
 33
        1.30792
999
Fixed Shading:Mir-SHADING GROUP 1 FACE 310
  0
3DFACE
  8
Fixed Shading
 62
  9
 10
       -0.80940
 20
       -0.50104
 30
        1.30792
 11
       -0.81044
 21
       -0.50111
 31
        1.31179
 12
       -1.19577
 22
       -0.49923
 32
        1.20441
 13
       -1.19577
 23
       -0.49923
 33
        1.20441
999
Fixed Shading:SHADING GROUP 1 FACE 311
  0
3DFACE
  8
Fixed Shading
 62
  9
 10
       -1.19577
 20
       -0.09930
 30
        1.21139
 11
       -1.19681
 21
       -0.49930
 31
        1.20827
 12
       -1.19577
 22
       -0.49923
 32
        1.20441
 13
       -1.19577
 23
       -0.49923
 33
        1.20441
999
Fixed Shading:Mir-SHADING GROUP 1 FACE 311
  0
3DFACE
  8
Fixed Shading
 62
  9
 10
       -1.19577
 20
       -0.49923
 30
        1.20441
 11
       -1.19681
 21
       -0.49930
 31
        1.20827
 12
       -1.19577
 22
       -0.09930
 32
        1.21139
 13
       -1.19577
 23
       -0.09930
 33
        1.21139
999
Fixed Shading:SHADING GROUP 1 FACE 312
  0
3DFACE
  8
Fixed Shading
 62
  9
 10
       -0.80940
 20
       -0.10110
 30
        1.31490
 11
       -1.19681
 21
       -0.09936
 31
        1.21526
 12
       -1.19577
 22
       -0.09930
 32
        1.21139
 13
       -1.19577
 23
       -0.09930
 33
        1.21139
999
Fixed Shading:Mir-SHADING GROUP 1 FACE 312
  0
3DFACE
  8
Fixed Shading
 62
  9
 10
       -1.19577
 20
       -0.09930
 30
        1.21139
 11
       -1.19681
 21
       -0.09936
 31
        1.21526
 12
       -0.80940
 22
       -0.10110
 32
        1.31490
 13
       -0.80940
 23
       -0.10110
 33
        1.31490
999
Fixed Shading:SHADING GROUP 1 FACE 313
  0
3DFACE
  8
Fixed Shading
 62
  9
 10
       -1.30940
 20
       -0.10110
 30
        1.31490
 11
       -1.69577
 21
       -0.09930
 31
        1.21139
 12
       -1.69577
 22
       -0.49923
 32
        1.20441
 13
       -1.30940
 23
       -0.50104
 33
        1.30792
999
Fixed Shading:Mir-SHADING GROUP 1 FACE 313
  0
3DFACE
  8
Fixed Shading
 62
  9
 10
       -1.30940
 20
       -0.50104
 30
        1.30792
 11
       -1.69577
 21
       -0.49923
 31
        1.20441
 12
       -1.69577
 22
       -0.09930
 32
        1.21139
 13
       -1.30940
 23
       -0.10110
 33
        1.31490
999
Fixed Shading:SHADING GROUP 1 FACE 314
  0
3DFACE
  8
Fixed Shading
 62
  9
 10
       -1.31044
 20
       -0.50111
 30
        1.31179
 11
       -1.69681
 21
       -0.49930
 31
        1.20827
 12
       -1.69681
 22
       -0.09936
 32
        1.21526
 13
       -1.31044
 23
       -0.10117
 33
        1.31877
999
Fixed Shading:Mir-SHADING GROUP 1 FACE 314
  0
3DFACE
  8
Fixed Shading
 62
  9
 10
       -1.31044
 20
       -0.10117
 30
        1.31877
 11
       -1.69681
 21
       -0.09936
 31
        1.21526
 12
       -1.69681
 22
       -0.49930
 32
        1.20827
 13
       -1.31044
 23
       -0.50111
 33
        1.31179
999
Fixed Shading:SHADING GROUP 1 FACE 315
  0
3DFACE
  8
Fixed Shading
 62
  9
 10
       -1.30940
 20
       -0.50104
 30
        1.30792
 11
       -1.31044
 21
       -0.10117
 31
        1.31877
 12
       -1.30940
 22
       -0.10110
 32
        1.31490
 13
       -1.30940
 23
       -0.10110
 33
        1.31490
999
Fixed Shading:Mir-SHADING GROUP 1 FACE 315
  0
3DFACE
  8
Fixed Shading
 62
  9
 10
       -1.30940
 20
       -0.10110
 30
        1.31490
 11
       -1.31044
 21
       -0.10117
 31
        1.31877
 12
       -1.30940
 22
       -0.50104
 32
        1.30792
 13
       -1.30940
 23
       -0.50104
 33
        1.30792
999
Fixed Shading:SHADING GROUP 1 FACE 316
  0
3DFACE
  8
Fixed Shading
 62
  9
 10
       -1.69577
 20
       -0.49923
 30
        1.20441
 11
       -1.31044
 21
       -0.50111
 31
        1.31179
 12
       -1.30940
 22
       -0.50104
 32
        1.30792
 13
       -1.30940
 23
       -0.50104
 33
        1.30792
999
Fixed Shading:Mir-SHADING GROUP 1 FACE 316
  0
3DFACE
  8
Fixed Shading
 62
  9
 10
       -1.30940
 20
       -0.50104
 30
        1.30792
 11
       -1.31044
 21
       -0.50111
 31
        1.31179
 12
       -1.69577
 22
       -0.49923
 32
        1.20441
 13
       -1.69577
 23
       -0.49923
 33
        1.20441
999
Fixed Shading:SHADING GROUP 1 FACE 317
  0
3DFACE
  8
Fixed Shading
 62
  9
 10
       -1.69577
 20
       -0.09930
 30
        1.21139
 11
       -1.69681
 21
       -0.49930
 31
        1.20827
 12
       -1.69577
 22
       -0.49923
 32
        1.20441
 13
       -1.69577
 23
       -0.49923
 33
        1.20441
999
Fixed Shading:Mir-SHADING GROUP 1 FACE 317
  0
3DFACE
  8
Fixed Shading
 62
  9
 10
       -1.69577
 20
       -0.49923
 30
        1.20441
 11
       -1.69681
 21
       -0.49930
 31
        1.20827
 12
       -1.69577
 22
       -0.09930
 32
        1.21139
 13
       -1.69577
 23
       -0.09930
 33
        1.21139
999
Fixed Shading:SHADING GROUP 1 FACE 318
  0
3DFACE
  8
Fixed Shading
 62
  9
 10
       -1.30940
 20
       -0.10110
 30
        1.31490
 11
       -1.69681
 21
       -0.09936
 31
        1.21526
 12
       -1.69577
 22
       -0.09930
 32
        1.21139
 13
       -1.69577
 23
       -0.09930
 33
        1.21139
999
Fixed Shading:Mir-SHADING GROUP 1 FACE 318
  0
3DFACE
  8
Fixed Shading
 62
  9
 10
       -1.69577
 20
       -0.09930
 30
        1.21139
 11
       -1.69681
 21
       -0.09936
 31
        1.21526
 12
       -1.30940
 22
       -0.10110
 32
        1.31490
 13
       -1.30940
 23
       -0.10110
 33
        1.31490
999
Fixed Shading:SHADING GROUP 1 FACE 319
  0
3DFACE
  8
Fixed Shading
 62
  9
 10
       -1.80940
 20
       -0.10110
 30
        1.31490
 11
       -2.19577
 21
       -0.09930
 31
        1.21139
 12
       -2.19577
 22
       -0.49923
 32
        1.20441
 13
       -1.80940
 23
       -0.50104
 33
        1.30792
999
Fixed Shading:Mir-SHADING GROUP 1 FACE 319
  0
3DFACE
  8
Fixed Shading
 62
  9
 10
       -1.80940
 20
       -0.50104
 30
        1.30792
 11
       -2.19577
 21
       -0.49923
 31
        1.20441
 12
       -2.19577
 22
       -0.09930
 32
        1.21139
 13
       -1.80940
 23
       -0.10110
 33
        1.31490
999
Fixed Shading:SHADING GROUP 1 FACE 320
  0
3DFACE
  8
Fixed Shading
 62
  9
 10
       -1.81044
 20
       -0.50111
 30
        1.31179
 11
       -2.19681
 21
       -0.49930
 31
        1.20827
 12
       -2.19681
 22
       -0.09936
 32
        1.21526
 13
       -1.81044
 23
       -0.10117
 33
        1.31877
999
Fixed Shading:Mir-SHADING GROUP 1 FACE 320
  0
3DFACE
  8
Fixed Shading
 62
  9
 10
       -1.81044
 20
       -0.10117
 30
        1.31877
 11
       -2.19681
 21
       -0.09936
 31
        1.21526
 12
       -2.19681
 22
       -0.49930
 32
        1.20827
 13
       -1.81044
 23
       -0.50111
 33
        1.31179
999
Fixed Shading:SHADING GROUP 1 FACE 321
  0
3DFACE
  8
Fixed Shading
 62
  9
 10
       -1.80940
 20
       -0.50104
 30
        1.30792
 11
       -1.81044
 21
       -0.10117
 31
        1.31877
 12
       -1.80940
 22
       -0.10110
 32
        1.31490
 13
       -1.80940
 23
       -0.10110
 33
        1.31490
999
Fixed Shading:Mir-SHADING GROUP 1 FACE 321
  0
3DFACE
  8
Fixed Shading
 62
  9
 10
       -1.80940
 20
       -0.10110
 30
        1.31490
 11
       -1.81044
 21
       -0.10117
 31
        1.31877
 12
       -1.80940
 22
       -0.50104
 32
        1.30792
 13
       -1.80940
 23
       -0.50104
 33
        1.30792
999
Fixed Shading:SHADING GROUP 1 FACE 322
  0
3DFACE
  8
Fixed Shading
 62
  9
 10
       -2.19577
 20
       -0.49923
 30
        1.20441
 11
       -1.81044
 21
       -0.50111
 31
        1.31179
 12
       -1.80940
 22
       -0.50104
 32
        1.30792
 13
       -1.80940
 23
       -0.50104
 33
        1.30792
999
Fixed Shading:Mir-SHADING GROUP 1 FACE 322
  0
3DFACE
  8
Fixed Shading
 62
  9
 10
       -1.80940
 20
       -0.50104
 30
        1.30792
 11
       -1.81044
 21
       -0.50111
 31
        1.31179
 12
       -2.19577
 22
       -0.49923
 32
        1.20441
 13
       -2.19577
 23
       -0.49923
 33
        1.20441
999
Fixed Shading:SHADING GROUP 1 FACE 323
  0
3DFACE
  8
Fixed Shading
 62
  9
 10
       -2.19577
 20
       -0.09930
 30
        1.21139
 11
       -2.19681
 21
       -0.49930
 31
        1.20827
 12
       -2.19577
 22
       -0.49923
 32
        1.20441
 13
       -2.19577
 23
       -0.49923
 33
        1.20441
999
Fixed Shading:Mir-SHADING GROUP 1 FACE 323
  0
3DFACE
  8
Fixed Shading
 62
  9
 10
       -2.19577
 20
       -0.49923
 30
        1.20441
 11
       -2.19681
 21
       -0.49930
 31
        1.20827
 12
       -2.19577
 22
       -0.09930
 32
        1.21139
 13
       -2.19577
 23
       -0.09930
 33
        1.21139
999
Fixed Shading:SHADING GROUP 1 FACE 324
  0
3DFACE
  8
Fixed Shading
 62
  9
 10
       -1.80940
 20
       -0.10110
 30
        1.31490
 11
       -2.19681
 21
       -0.09936
 31
        1.21526
 12
       -2.19577
 22
       -0.09930
 32
        1.21139
 13
       -2.19577
 23
       -0.09930
 33
        1.21139
999
Fixed Shading:Mir-SHADING GROUP 1 FACE 324
  0
3DFACE
  8
Fixed Shading
 62
  9
 10
       -2.19577
 20
       -0.09930
 30
        1.21139
 11
       -2.19681
 21
       -0.09936
 31
        1.21526
 12
       -1.80940
 22
       -0.10110
 32
        1.31490
 13
       -1.80940
 23
       -0.10110
 33
        1.31490
999
ZONE1:ZONE1_FACE_1
  0
3DFACE
  8
ZONE1
 62
 43
 10
        2.45000
 20
        7.00000
 30
        1.55000
 11
        2.45000
 21
        7.00000
 31
       -1.55000
 12
       -2.45000
 22
        7.00000
 32
       -1.55000
 13
       -2.45000
 23
        7.00000
 33
        1.55000
999
ZONE1:ZONE1_FACE_2
  0
3DFACE
  8
ZONE1
 62
 43
 10
        2.45000
 20
        0.00000
 30
        1.55000
 11
        2.45000
 21
        0.00000
 31
       -1.55000
 12
        2.45000
 22
        7.00000
 32
       -1.55000
 13
        2.45000
 23
        7.00000
 33
        1.55000
999
ZONE1:ZONE1_FACE_3
  0
3DFACE
  8
ZONE1
 62
 43
 10
       -2.45000
 20
        7.00000
 30
        1.55000
 11
       -2.45000
 21
        7.00000
 31
       -1.55000
 12
       -2.45000
 22
        0.00000
 32
       -1.55000
 13
       -2.45000
 23
        0.00000
 33
        1.55000
999
ZONE1:ZONE1_FACE_6
  0
3DFACE
  8
ZONE1
 62
 43
 10
       -2.45000
 20
        0.00000
 30
        1.55000
 11
       -2.45000
 21
        0.00000
 31
       -1.55000
 12
        2.45000
 22
        0.00000
 32
       -1.55000
 13
        2.45000
 23
        0.00000
 33
        1.55000
999
ZONE1:ZONE1_FACE_6_WINDOW_1
  0
3DFACE
  8
ZONE1
 62
143
 10
       -2.25000
 20
        0.00000
 30
        1.50000
 11
       -2.25000
 21
        0.00000
 31
       -1.50000
 12
        2.25000
 22
        0.00000
 32
       -1.50000
 13
        2.25000
 23
        0.00000
 33
        1.50000
999
ZONE1:ZONE1_FACE_5
  0
3DFACE
  8
ZONE1
 62
  8
 10
        2.45000
 20
        7.00000
 30
       -1.55000
 11
        2.45000
 21
        0.00000
 31
       -1.55000
 12
       -2.45000
 22
        0.00000
 32
       -1.55000
 13
       -2.45000
 23
        7.00000
 33
       -1.55000
999
ZONE1:ZONE1_FACE_4
  0
3DFACE
  8
ZONE1
 62
 15
 10
       -2.45000
 20
        7.00000
 30
        1.55000
 11
       -2.45000
 21
        0.00000
 31
        1.55000
 12
        2.45000
 22
        0.00000
 32
        1.55000
 13
        2.45000
 23
        7.00000
 33
        1.55000
999
ZONE1:DayRefPt:1
  0
CIRCLE
  8
ZONE1
 62
 10
 10
        0.00000
 20
        3.50000
 30
       -0.75000
 40
        0.20000
  0
ENDSEC
  0
EOF
