  0
SECTION
  2
ENTITIES
999
DXF created from EnergyPlus
999
Program Version,EnergyPlus-Windows-OMP-32 7.2.0.006, YMD=2014.05.13 17:52
999
Polygon Action,ThickPolyline
999
Color Scheme,Default
999
Text - True North
  0
TEXT
  8
1
  6
Continuous
 62
  3
 10
      -13.45000
 20
        2.41941
 30
        0.10000
 40
 .25
  1
True North
 41
 0.0
  7
MONOTXT
210
0.0
220
0.0
230
1.0
999
Text - Building Title
  0
TEXT
  8
1
  6
Continuous
 62
  3
 10
      -16.45000
 20
       -1.58059
 30
        0.10000
 40
 .4
  1
Building - BUILDING
 41
 0.0
  7
MONOTXT
210
0.0
220
0.0
230
1.0
999
North Arrow Stem
  0
3DFACE
  8
1
 62
  3
 10
      -12.45000
 20
        2.41941
 30
        0.10000
 11
      -12.45000
 21
        2.41941
 31
        0.00000
 12
      -12.45000
 22
       -0.58059
 32
        0.00000
 13
      -12.45000
 23
       -0.58059
 33
        0.10000
999
North Arrow Head 1
  0
3DFACE
  8
1
 62
  3
 10
      -12.45000
 20
        2.41941
 30
        0.10000
 11
      -12.45000
 21
        2.41941
 31
        0.00000
 12
      -12.95000
 22
        1.55339
 32
        0.00000
 13
      -12.95000
 23
        1.55339
 33
        0.10000
999
North Arrow Head 2
  0
3DFACE
  8
1
 62
  3
 10
      -12.45000
 20
        2.41941
 30
        0.10000
 11
      -12.45000
 21
        2.41941
 31
        0.00000
 12
      -11.95000
 22
        1.55339
 32
        0.00000
 13
      -11.95000
 23
        1.55339
 33
        0.10000
999
North Arrow Side 1
  0
3DFACE
  8
1
 62
  3
 10
      -12.95000
 20
        3.91941
 30
        0.10000
 11
      -12.95000
 21
        3.91941
 31
        0.00000
 12
      -12.95000
 22
        2.91941
 32
        0.00000
 13
      -12.95000
 23
        2.91941
 33
        0.10000
999
North Arrow Side 2
  0
3DFACE
  8
1
 62
  3
 10
      -12.95000
 20
        3.91941
 30
        0.10000
 11
      -12.95000
 21
        3.91941
 31
        0.00000
 12
      -11.95000
 22
        2.91941
 32
        0.00000
 13
      -11.95000
 23
        2.91941
 33
        0.10000
999
North Arrow Side 3
  0
3DFACE
  8
1
 62
  3
 10
      -11.95000
 20
        3.91941
 30
        0.10000
 11
      -11.95000
 21
        3.91941
 31
        0.00000
 12
      -11.95000
 22
        2.91941
 32
        0.00000
 13
      -11.95000
 23
        2.91941
 33
        0.10000
999
Zone Names
999
Zone=1:ZONE1
999
Fixed Shading:SHADING GROUP 1 FACE 1
  0
3DFACE
  8
Fixed Shading
 62
  9
 10
        2.06142
 20
       -0.09670
 30
       -1.43708
 11
        1.95790
 21
       -0.10345
 31
       -1.05077
 12
        1.95790
 22
       -0.50339
 32
       -1.05775
 13
        2.06142
 23
       -0.49664
 33
       -1.44406
999
Fixed Shading:Mir-SHADING GROUP 1 FACE 1
  0
3DFACE
  8
Fixed Shading
 62
  9
 10
        2.06142
 20
       -0.49664
 30
       -1.44406
 11
        1.95790
 21
       -0.50339
 31
       -1.05775
 12
        1.95790
 22
       -0.10345
 32
       -1.05077
 13
        2.06142
 23
       -0.09670
 33
       -1.43708
999
Fixed Shading:SHADING GROUP 1 FACE 2
  0
3DFACE
  8
Fixed Shading
 62
  9
 10
        2.06529
 20
       -0.49666
 30
       -1.44302
 11
        1.96176
 21
       -0.50340
 31
       -1.05671
 12
        1.96176
 22
       -0.10347
 32
       -1.04973
 13
        2.06529
 23
       -0.09672
 33
       -1.43604
999
Fixed Shading:Mir-SHADING GROUP 1 FACE 2
  0
3DFACE
  8
Fixed Shading
 62
  9
 10
        2.06529
 20
       -0.09672
 30
       -1.43604
 11
        1.96176
 21
       -0.10347
 31
       -1.04973
 12
        1.96176
 22
       -0.50340
 32
       -1.05671
 13
        2.06529
 23
       -0.49666
 33
       -1.44302
999
Fixed Shading:SHADING GROUP 1 FACE 3
  0
3DFACE
  8
Fixed Shading
 62
  9
 10
        2.06142
 20
       -0.49664
 30
       -1.44406
 11
        2.06529
 21
       -0.09672
 31
       -1.43604
 12
        2.06142
 22
       -0.09670
 32
       -1.43708
 13
        2.06142
 23
       -0.09670
 33
       -1.43708
999
Fixed Shading:Mir-SHADING GROUP 1 FACE 3
  0
3DFACE
  8
Fixed Shading
 62
  9
 10
        2.06142
 20
       -0.09670
 30
       -1.43708
 11
        2.06529
 21
       -0.09672
 31
       -1.43604
 12
        2.06142
 22
       -0.49664
 32
       -1.44406
 13
        2.06142
 23
       -0.49664
 33
       -1.44406
999
Fixed Shading:SHADING GROUP 1 FACE 4
  0
3DFACE
  8
Fixed Shading
 62
  9
 10
        1.95790
 20
       -0.50339
 30
       -1.05775
 11
        2.06529
 21
       -0.49666
 31
       -1.44302
 12
        2.06142
 22
       -0.49664
 32
       -1.44406
 13
        2.06142
 23
       -0.49664
 33
       -1.44406
999
Fixed Shading:Mir-SHADING GROUP 1 FACE 4
  0
3DFACE
  8
Fixed Shading
 62
  9
 10
        2.06142
 20
       -0.49664
 30
       -1.44406
 11
        2.06529
 21
       -0.49666
 31
       -1.44302
 12
        1.95790
 22
       -0.50339
 32
       -1.05775
 13
        1.95790
 23
       -0.50339
 33
       -1.05775
999
Fixed Shading:SHADING GROUP 1 FACE 5
  0
3DFACE
  8
Fixed Shading
 62
  9
 10
        1.95790
 20
       -0.10345
 30
       -1.05077
 11
        1.96176
 21
       -0.50340
 31
       -1.05671
 12
        1.95790
 22
       -0.50339
 32
       -1.05775
 13
        1.95790
 23
       -0.50339
 33
       -1.05775
999
Fixed Shading:Mir-SHADING GROUP 1 FACE 5
  0
3DFACE
  8
Fixed Shading
 62
  9
 10
        1.95790
 20
       -0.50339
 30
       -1.05775
 11
        1.96176
 21
       -0.50340
 31
       -1.05671
 12
        1.95790
 22
       -0.10345
 32
       -1.05077
 13
        1.95790
 23
       -0.10345
 33
       -1.05077
999
Fixed Shading:SHADING GROUP 1 FACE 6
  0
3DFACE
  8
Fixed Shading
 62
  9
 10
        2.06142
 20
       -0.09670
 30
       -1.43708
 11
        1.96176
 21
       -0.10347
 31
       -1.04973
 12
        1.95790
 22
       -0.10345
 32
       -1.05077
 13
        1.95790
 23
       -0.10345
 33
       -1.05077
999
Fixed Shading:Mir-SHADING GROUP 1 FACE 6
  0
3DFACE
  8
Fixed Shading
 62
  9
 10
        1.95790
 20
       -0.10345
 30
       -1.05077
 11
        1.96176
 21
       -0.10347
 31
       -1.04973
 12
        2.06142
 22
       -0.09670
 32
       -1.43708
 13
        2.06142
 23
       -0.09670
 33
       -1.43708
999
Fixed Shading:SHADING GROUP 1 FACE 7
  0
3DFACE
  8
Fixed Shading
 62
  9
 10
        1.56142
 20
       -0.09670
 30
       -1.43708
 11
        1.45790
 21
       -0.10345
 31
       -1.05077
 12
        1.45790
 22
       -0.50339
 32
       -1.05775
 13
        1.56142
 23
       -0.49664
 33
       -1.44406
999
Fixed Shading:Mir-SHADING GROUP 1 FACE 7
  0
3DFACE
  8
Fixed Shading
 62
  9
 10
        1.56142
 20
       -0.49664
 30
       -1.44406
 11
        1.45790
 21
       -0.50339
 31
       -1.05775
 12
        1.45790
 22
       -0.10345
 32
       -1.05077
 13
        1.56142
 23
       -0.09670
 33
       -1.43708
999
Fixed Shading:SHADING GROUP 1 FACE 8
  0
3DFACE
  8
Fixed Shading
 62
  9
 10
        1.56529
 20
       -0.49666
 30
       -1.44302
 11
        1.46176
 21
       -0.50340
 31
       -1.05671
 12
        1.46176
 22
       -0.10347
 32
       -1.04973
 13
        1.56529
 23
       -0.09672
 33
       -1.43604
999
Fixed Shading:Mir-SHADING GROUP 1 FACE 8
  0
3DFACE
  8
Fixed Shading
 62
  9
 10
        1.56529
 20
       -0.09672
 30
       -1.43604
 11
        1.46176
 21
       -0.10347
 31
       -1.04973
 12
        1.46176
 22
       -0.50340
 32
       -1.05671
 13
        1.56529
 23
       -0.49666
 33
       -1.44302
999
Fixed Shading:SHADING GROUP 1 FACE 9
  0
3DFACE
  8
Fixed Shading
 62
  9
 10
        1.56142
 20
       -0.49664
 30
       -1.44406
 11
        1.56529
 21
       -0.09672
 31
       -1.43604
 12
        1.56142
 22
       -0.09670
 32
       -1.43708
 13
        1.56142
 23
       -0.09670
 33
       -1.43708
999
Fixed Shading:Mir-SHADING GROUP 1 FACE 9
  0
3DFACE
  8
Fixed Shading
 62
  9
 10
        1.56142
 20
       -0.09670
 30
       -1.43708
 11
        1.56529
 21
       -0.09672
 31
       -1.43604
 12
        1.56142
 22
       -0.49664
 32
       -1.44406
 13
        1.56142
 23
       -0.49664
 33
       -1.44406
999
Fixed Shading:SHADING GROUP 1 FACE 10
  0
3DFACE
  8
Fixed Shading
 62
  9
 10
        1.45790
 20
       -0.50339
 30
       -1.05775
 11
        1.56529
 21
       -0.49666
 31
       -1.44302
 12
        1.56142
 22
       -0.49664
 32
       -1.44406
 13
        1.56142
 23
       -0.49664
 33
       -1.44406
999
Fixed Shading:Mir-SHADING GROUP 1 FACE 10
  0
3DFACE
  8
Fixed Shading
 62
  9
 10
        1.56142
 20
       -0.49664
 30
       -1.44406
 11
        1.56529
 21
       -0.49666
 31
       -1.44302
 12
        1.45790
 22
       -0.50339
 32
       -1.05775
 13
        1.45790
 23
       -0.50339
 33
       -1.05775
999
Fixed Shading:SHADING GROUP 1 FACE 11
  0
3DFACE
  8
Fixed Shading
 62
  9
 10
        1.45790
 20
       -0.10345
 30
       -1.05077
 11
        1.46176
 21
       -0.50340
 31
       -1.05671
 12
        1.45790
 22
       -0.50339
 32
       -1.05775
 13
        1.45790
 23
       -0.50339
 33
       -1.05775
999
Fixed Shading:Mir-SHADING GROUP 1 FACE 11
  0
3DFACE
  8
Fixed Shading
 62
  9
 10
        1.45790
 20
       -0.50339
 30
       -1.05775
 11
        1.46176
 21
       -0.50340
 31
       -1.05671
 12
        1.45790
 22
       -0.10345
 32
       -1.05077
 13
        1.45790
 23
       -0.10345
 33
       -1.05077
999
Fixed Shading:SHADING GROUP 1 FACE 12
  0
3DFACE
  8
Fixed Shading
 62
  9
 10
        1.56142
 20
       -0.09670
 30
       -1.43708
 11
        1.46176
 21
       -0.10347
 31
       -1.04973
 12
        1.45790
 22
       -0.10345
 32
       -1.05077
 13
        1.45790
 23
       -0.10345
 33
       -1.05077
999
Fixed Shading:Mir-SHADING GROUP 1 FACE 12
  0
3DFACE
  8
Fixed Shading
 62
  9
 10
        1.45790
 20
       -0.10345
 30
       -1.05077
 11
        1.46176
 21
       -0.10347
 31
       -1.04973
 12
        1.56142
 22
       -0.09670
 32
       -1.43708
 13
        1.56142
 23
       -0.09670
 33
       -1.43708
999
Fixed Shading:SHADING GROUP 1 FACE 13
  0
3DFACE
  8
Fixed Shading
 62
  9
 10
        1.06142
 20
       -0.09670
 30
       -1.43708
 11
        0.95790
 21
       -0.10345
 31
       -1.05077
 12
        0.95790
 22
       -0.50339
 32
       -1.05775
 13
        1.06142
 23
       -0.49664
 33
       -1.44406
999
Fixed Shading:Mir-SHADING GROUP 1 FACE 13
  0
3DFACE
  8
Fixed Shading
 62
  9
 10
        1.06142
 20
       -0.49664
 30
       -1.44406
 11
        0.95790
 21
       -0.50339
 31
       -1.05775
 12
        0.95790
 22
       -0.10345
 32
       -1.05077
 13
        1.06142
 23
       -0.09670
 33
       -1.43708
999
Fixed Shading:SHADING GROUP 1 FACE 14
  0
3DFACE
  8
Fixed Shading
 62
  9
 10
        1.06529
 20
       -0.49666
 30
       -1.44302
 11
        0.96176
 21
       -0.50340
 31
       -1.05671
 12
        0.96176
 22
       -0.10347
 32
       -1.04973
 13
        1.06529
 23
       -0.09672
 33
       -1.43604
999
Fixed Shading:Mir-SHADING GROUP 1 FACE 14
  0
3DFACE
  8
Fixed Shading
 62
  9
 10
        1.06529
 20
       -0.09672
 30
       -1.43604
 11
        0.96176
 21
       -0.10347
 31
       -1.04973
 12
        0.96176
 22
       -0.50340
 32
       -1.05671
 13
        1.06529
 23
       -0.49666
 33
       -1.44302
999
Fixed Shading:SHADING GROUP 1 FACE 15
  0
3DFACE
  8
Fixed Shading
 62
  9
 10
        1.06142
 20
       -0.49664
 30
       -1.44406
 11
        1.06529
 21
       -0.09672
 31
       -1.43604
 12
        1.06142
 22
       -0.09670
 32
       -1.43708
 13
        1.06142
 23
       -0.09670
 33
       -1.43708
999
Fixed Shading:Mir-SHADING GROUP 1 FACE 15
  0
3DFACE
  8
Fixed Shading
 62
  9
 10
        1.06142
 20
       -0.09670
 30
       -1.43708
 11
        1.06529
 21
       -0.09672
 31
       -1.43604
 12
        1.06142
 22
       -0.49664
 32
       -1.44406
 13
        1.06142
 23
       -0.49664
 33
       -1.44406
999
Fixed Shading:SHADING GROUP 1 FACE 16
  0
3DFACE
  8
Fixed Shading
 62
  9
 10
        0.95790
 20
       -0.50339
 30
       -1.05775
 11
        1.06529
 21
       -0.49666
 31
       -1.44302
 12
        1.06142
 22
       -0.49664
 32
       -1.44406
 13
        1.06142
 23
       -0.49664
 33
       -1.44406
999
Fixed Shading:Mir-SHADING GROUP 1 FACE 16
  0
3DFACE
  8
Fixed Shading
 62
  9
 10
        1.06142
 20
       -0.49664
 30
       -1.44406
 11
        1.06529
 21
       -0.49666
 31
       -1.44302
 12
        0.95790
 22
       -0.50339
 32
       -1.05775
 13
        0.95790
 23
       -0.50339
 33
       -1.05775
999
Fixed Shading:SHADING GROUP 1 FACE 17
  0
3DFACE
  8
Fixed Shading
 62
  9
 10
        0.95790
 20
       -0.10345
 30
       -1.05077
 11
        0.96176
 21
       -0.50340
 31
       -1.05671
 12
        0.95790
 22
       -0.50339
 32
       -1.05775
 13
        0.95790
 23
       -0.50339
 33
       -1.05775
999
Fixed Shading:Mir-SHADING GROUP 1 FACE 17
  0
3DFACE
  8
Fixed Shading
 62
  9
 10
        0.95790
 20
       -0.50339
 30
       -1.05775
 11
        0.96176
 21
       -0.50340
 31
       -1.05671
 12
        0.95790
 22
       -0.10345
 32
       -1.05077
 13
        0.95790
 23
       -0.10345
 33
       -1.05077
999
Fixed Shading:SHADING GROUP 1 FACE 18
  0
3DFACE
  8
Fixed Shading
 62
  9
 10
        1.06142
 20
       -0.09670
 30
       -1.43708
 11
        0.96176
 21
       -0.10347
 31
       -1.04973
 12
        0.95790
 22
       -0.10345
 32
       -1.05077
 13
        0.95790
 23
       -0.10345
 33
       -1.05077
999
Fixed Shading:Mir-SHADING GROUP 1 FACE 18
  0
3DFACE
  8
Fixed Shading
 62
  9
 10
        0.95790
 20
       -0.10345
 30
       -1.05077
 11
        0.96176
 21
       -0.10347
 31
       -1.04973
 12
        1.06142
 22
       -0.09670
 32
       -1.43708
 13
        1.06142
 23
       -0.09670
 33
       -1.43708
999
Fixed Shading:SHADING GROUP 1 FACE 19
  0
3DFACE
  8
Fixed Shading
 62
  9
 10
        0.56142
 20
       -0.09670
 30
       -1.43708
 11
        0.45790
 21
       -0.10345
 31
       -1.05077
 12
        0.45790
 22
       -0.50339
 32
       -1.05775
 13
        0.56142
 23
       -0.49664
 33
       -1.44406
999
Fixed Shading:Mir-SHADING GROUP 1 FACE 19
  0
3DFACE
  8
Fixed Shading
 62
  9
 10
        0.56142
 20
       -0.49664
 30
       -1.44406
 11
        0.45790
 21
       -0.50339
 31
       -1.05775
 12
        0.45790
 22
       -0.10345
 32
       -1.05077
 13
        0.56142
 23
       -0.09670
 33
       -1.43708
999
Fixed Shading:SHADING GROUP 1 FACE 20
  0
3DFACE
  8
Fixed Shading
 62
  9
 10
        0.56529
 20
       -0.49666
 30
       -1.44302
 11
        0.46176
 21
       -0.50340
 31
       -1.05671
 12
        0.46176
 22
       -0.10347
 32
       -1.04973
 13
        0.56529
 23
       -0.09672
 33
       -1.43604
999
Fixed Shading:Mir-SHADING GROUP 1 FACE 20
  0
3DFACE
  8
Fixed Shading
 62
  9
 10
        0.56529
 20
       -0.09672
 30
       -1.43604
 11
        0.46176
 21
       -0.10347
 31
       -1.04973
 12
        0.46176
 22
       -0.50340
 32
       -1.05671
 13
        0.56529
 23
       -0.49666
 33
       -1.44302
999
Fixed Shading:SHADING GROUP 1 FACE 21
  0
3DFACE
  8
Fixed Shading
 62
  9
 10
        0.56142
 20
       -0.49664
 30
       -1.44406
 11
        0.56529
 21
       -0.09672
 31
       -1.43604
 12
        0.56142
 22
       -0.09670
 32
       -1.43708
 13
        0.56142
 23
       -0.09670
 33
       -1.43708
999
Fixed Shading:Mir-SHADING GROUP 1 FACE 21
  0
3DFACE
  8
Fixed Shading
 62
  9
 10
        0.56142
 20
       -0.09670
 30
       -1.43708
 11
        0.56529
 21
       -0.09672
 31
       -1.43604
 12
        0.56142
 22
       -0.49664
 32
       -1.44406
 13
        0.56142
 23
       -0.49664
 33
       -1.44406
999
Fixed Shading:SHADING GROUP 1 FACE 22
  0
3DFACE
  8
Fixed Shading
 62
  9
 10
        0.45790
 20
       -0.50339
 30
       -1.05775
 11
        0.56529
 21
       -0.49666
 31
       -1.44302
 12
        0.56142
 22
       -0.49664
 32
       -1.44406
 13
        0.56142
 23
       -0.49664
 33
       -1.44406
999
Fixed Shading:Mir-SHADING GROUP 1 FACE 22
  0
3DFACE
  8
Fixed Shading
 62
  9
 10
        0.56142
 20
       -0.49664
 30
       -1.44406
 11
        0.56529
 21
       -0.49666
 31
       -1.44302
 12
        0.45790
 22
       -0.50339
 32
       -1.05775
 13
        0.45790
 23
       -0.50339
 33
       -1.05775
999
Fixed Shading:SHADING GROUP 1 FACE 23
  0
3DFACE
  8
Fixed Shading
 62
  9
 10
        0.45790
 20
       -0.10345
 30
       -1.05077
 11
        0.46176
 21
       -0.50340
 31
       -1.05671
 12
        0.45790
 22
       -0.50339
 32
       -1.05775
 13
        0.45790
 23
       -0.50339
 33
       -1.05775
999
Fixed Shading:Mir-SHADING GROUP 1 FACE 23
  0
3DFACE
  8
Fixed Shading
 62
  9
 10
        0.45790
 20
       -0.50339
 30
       -1.05775
 11
        0.46176
 21
       -0.50340
 31
       -1.05671
 12
        0.45790
 22
       -0.10345
 32
       -1.05077
 13
        0.45790
 23
       -0.10345
 33
       -1.05077
999
Fixed Shading:SHADING GROUP 1 FACE 24
  0
3DFACE
  8
Fixed Shading
 62
  9
 10
        0.56142
 20
       -0.09670
 30
       -1.43708
 11
        0.46176
 21
       -0.10347
 31
       -1.04973
 12
        0.45790
 22
       -0.10345
 32
       -1.05077
 13
        0.45790
 23
       -0.10345
 33
       -1.05077
999
Fixed Shading:Mir-SHADING GROUP 1 FACE 24
  0
3DFACE
  8
Fixed Shading
 62
  9
 10
        0.45790
 20
       -0.10345
 30
       -1.05077
 11
        0.46176
 21
       -0.10347
 31
       -1.04973
 12
        0.56142
 22
       -0.09670
 32
       -1.43708
 13
        0.56142
 23
       -0.09670
 33
       -1.43708
999
Fixed Shading:SHADING GROUP 1 FACE 25
  0
3DFACE
  8
Fixed Shading
 62
  9
 10
        0.06142
 20
       -0.09670
 30
       -1.43708
 11
       -0.04210
 21
       -0.10345
 31
       -1.05077
 12
       -0.04210
 22
       -0.50339
 32
       -1.05775
 13
        0.06142
 23
       -0.49664
 33
       -1.44406
999
Fixed Shading:Mir-SHADING GROUP 1 FACE 25
  0
3DFACE
  8
Fixed Shading
 62
  9
 10
        0.06142
 20
       -0.49664
 30
       -1.44406
 11
       -0.04210
 21
       -0.50339
 31
       -1.05775
 12
       -0.04210
 22
       -0.10345
 32
       -1.05077
 13
        0.06142
 23
       -0.09670
 33
       -1.43708
999
Fixed Shading:SHADING GROUP 1 FACE 26
  0
3DFACE
  8
Fixed Shading
 62
  9
 10
        0.06529
 20
       -0.49666
 30
       -1.44302
 11
       -0.03824
 21
       -0.50340
 31
       -1.05671
 12
       -0.03824
 22
       -0.10347
 32
       -1.04973
 13
        0.06529
 23
       -0.09672
 33
       -1.43604
999
Fixed Shading:Mir-SHADING GROUP 1 FACE 26
  0
3DFACE
  8
Fixed Shading
 62
  9
 10
        0.06529
 20
       -0.09672
 30
       -1.43604
 11
       -0.03824
 21
       -0.10347
 31
       -1.04973
 12
       -0.03824
 22
       -0.50340
 32
       -1.05671
 13
        0.06529
 23
       -0.49666
 33
       -1.44302
999
Fixed Shading:SHADING GROUP 1 FACE 27
  0
3DFACE
  8
Fixed Shading
 62
  9
 10
        0.06142
 20
       -0.49664
 30
       -1.44406
 11
        0.06529
 21
       -0.09672
 31
       -1.43604
 12
        0.06142
 22
       -0.09670
 32
       -1.43708
 13
        0.06142
 23
       -0.09670
 33
       -1.43708
999
Fixed Shading:Mir-SHADING GROUP 1 FACE 27
  0
3DFACE
  8
Fixed Shading
 62
  9
 10
        0.06142
 20
       -0.09670
 30
       -1.43708
 11
        0.06529
 21
       -0.09672
 31
       -1.43604
 12
        0.06142
 22
       -0.49664
 32
       -1.44406
 13
        0.06142
 23
       -0.49664
 33
       -1.44406
999
Fixed Shading:SHADING GROUP 1 FACE 28
  0
3DFACE
  8
Fixed Shading
 62
  9
 10
       -0.04210
 20
       -0.50339
 30
       -1.05775
 11
        0.06529
 21
       -0.49666
 31
       -1.44302
 12
        0.06142
 22
       -0.49664
 32
       -1.44406
 13
        0.06142
 23
       -0.49664
 33
       -1.44406
999
Fixed Shading:Mir-SHADING GROUP 1 FACE 28
  0
3DFACE
  8
Fixed Shading
 62
  9
 10
        0.06142
 20
       -0.49664
 30
       -1.44406
 11
        0.06529
 21
       -0.49666
 31
       -1.44302
 12
       -0.04210
 22
       -0.50339
 32
       -1.05775
 13
       -0.04210
 23
       -0.50339
 33
       -1.05775
999
Fixed Shading:SHADING GROUP 1 FACE 29
  0
3DFACE
  8
Fixed Shading
 62
  9
 10
       -0.04210
 20
       -0.10345
 30
       -1.05077
 11
       -0.03824
 21
       -0.50340
 31
       -1.05671
 12
       -0.04210
 22
       -0.50339
 32
       -1.05775
 13
       -0.04210
 23
       -0.50339
 33
       -1.05775
999
Fixed Shading:Mir-SHADING GROUP 1 FACE 29
  0
3DFACE
  8
Fixed Shading
 62
  9
 10
       -0.04210
 20
       -0.50339
 30
       -1.05775
 11
       -0.03824
 21
       -0.50340
 31
       -1.05671
 12
       -0.04210
 22
       -0.10345
 32
       -1.05077
 13
       -0.04210
 23
       -0.10345
 33
       -1.05077
999
Fixed Shading:SHADING GROUP 1 FACE 30
  0
3DFACE
  8
Fixed Shading
 62
  9
 10
        0.06142
 20
       -0.09670
 30
       -1.43708
 11
       -0.03824
 21
       -0.10347
 31
       -1.04973
 12
       -0.04210
 22
       -0.10345
 32
       -1.05077
 13
       -0.04210
 23
       -0.10345
 33
       -1.05077
999
Fixed Shading:Mir-SHADING GROUP 1 FACE 30
  0
3DFACE
  8
Fixed Shading
 62
  9
 10
       -0.04210
 20
       -0.10345
 30
       -1.05077
 11
       -0.03824
 21
       -0.10347
 31
       -1.04973
 12
        0.06142
 22
       -0.09670
 32
       -1.43708
 13
        0.06142
 23
       -0.09670
 33
       -1.43708
999
Fixed Shading:SHADING GROUP 1 FACE 31
  0
3DFACE
  8
Fixed Shading
 62
  9
 10
       -0.43858
 20
       -0.09670
 30
       -1.43708
 11
       -0.54210
 21
       -0.10345
 31
       -1.05077
 12
       -0.54210
 22
       -0.50339
 32
       -1.05775
 13
       -0.43858
 23
       -0.49664
 33
       -1.44406
999
Fixed Shading:Mir-SHADING GROUP 1 FACE 31
  0
3DFACE
  8
Fixed Shading
 62
  9
 10
       -0.43858
 20
       -0.49664
 30
       -1.44406
 11
       -0.54210
 21
       -0.50339
 31
       -1.05775
 12
       -0.54210
 22
       -0.10345
 32
       -1.05077
 13
       -0.43858
 23
       -0.09670
 33
       -1.43708
999
Fixed Shading:SHADING GROUP 1 FACE 32
  0
3DFACE
  8
Fixed Shading
 62
  9
 10
       -0.43471
 20
       -0.49666
 30
       -1.44302
 11
       -0.53824
 21
       -0.50340
 31
       -1.05671
 12
       -0.53824
 22
       -0.10347
 32
       -1.04973
 13
       -0.43471
 23
       -0.09672
 33
       -1.43604
999
Fixed Shading:Mir-SHADING GROUP 1 FACE 32
  0
3DFACE
  8
Fixed Shading
 62
  9
 10
       -0.43471
 20
       -0.09672
 30
       -1.43604
 11
       -0.53824
 21
       -0.10347
 31
       -1.04973
 12
       -0.53824
 22
       -0.50340
 32
       -1.05671
 13
       -0.43471
 23
       -0.49666
 33
       -1.44302
999
Fixed Shading:SHADING GROUP 1 FACE 33
  0
3DFACE
  8
Fixed Shading
 62
  9
 10
       -0.43858
 20
       -0.49664
 30
       -1.44406
 11
       -0.43471
 21
       -0.09672
 31
       -1.43604
 12
       -0.43858
 22
       -0.09670
 32
       -1.43708
 13
       -0.43858
 23
       -0.09670
 33
       -1.43708
999
Fixed Shading:Mir-SHADING GROUP 1 FACE 33
  0
3DFACE
  8
Fixed Shading
 62
  9
 10
       -0.43858
 20
       -0.09670
 30
       -1.43708
 11
       -0.43471
 21
       -0.09672
 31
       -1.43604
 12
       -0.43858
 22
       -0.49664
 32
       -1.44406
 13
       -0.43858
 23
       -0.49664
 33
       -1.44406
999
Fixed Shading:SHADING GROUP 1 FACE 34
  0
3DFACE
  8
Fixed Shading
 62
  9
 10
       -0.54210
 20
       -0.50339
 30
       -1.05775
 11
       -0.43471
 21
       -0.49666
 31
       -1.44302
 12
       -0.43858
 22
       -0.49664
 32
       -1.44406
 13
       -0.43858
 23
       -0.49664
 33
       -1.44406
999
Fixed Shading:Mir-SHADING GROUP 1 FACE 34
  0
3DFACE
  8
Fixed Shading
 62
  9
 10
       -0.43858
 20
       -0.49664
 30
       -1.44406
 11
       -0.43471
 21
       -0.49666
 31
       -1.44302
 12
       -0.54210
 22
       -0.50339
 32
       -1.05775
 13
       -0.54210
 23
       -0.50339
 33
       -1.05775
999
Fixed Shading:SHADING GROUP 1 FACE 35
  0
3DFACE
  8
Fixed Shading
 62
  9
 10
       -0.54210
 20
       -0.10345
 30
       -1.05077
 11
       -0.53824
 21
       -0.50340
 31
       -1.05671
 12
       -0.54210
 22
       -0.50339
 32
       -1.05775
 13
       -0.54210
 23
       -0.50339
 33
       -1.05775
999
Fixed Shading:Mir-SHADING GROUP 1 FACE 35
  0
3DFACE
  8
Fixed Shading
 62
  9
 10
       -0.54210
 20
       -0.50339
 30
       -1.05775
 11
       -0.53824
 21
       -0.50340
 31
       -1.05671
 12
       -0.54210
 22
       -0.10345
 32
       -1.05077
 13
       -0.54210
 23
       -0.10345
 33
       -1.05077
999
Fixed Shading:SHADING GROUP 1 FACE 36
  0
3DFACE
  8
Fixed Shading
 62
  9
 10
       -0.43858
 20
       -0.09670
 30
       -1.43708
 11
       -0.53824
 21
       -0.10347
 31
       -1.04973
 12
       -0.54210
 22
       -0.10345
 32
       -1.05077
 13
       -0.54210
 23
       -0.10345
 33
       -1.05077
999
Fixed Shading:Mir-SHADING GROUP 1 FACE 36
  0
3DFACE
  8
Fixed Shading
 62
  9
 10
       -0.54210
 20
       -0.10345
 30
       -1.05077
 11
       -0.53824
 21
       -0.10347
 31
       -1.04973
 12
       -0.43858
 22
       -0.09670
 32
       -1.43708
 13
       -0.43858
 23
       -0.09670
 33
       -1.43708
999
Fixed Shading:SHADING GROUP 1 FACE 37
  0
3DFACE
  8
Fixed Shading
 62
  9
 10
       -0.93858
 20
       -0.09670
 30
       -1.43708
 11
       -1.04210
 21
       -0.10345
 31
       -1.05077
 12
       -1.04210
 22
       -0.50339
 32
       -1.05775
 13
       -0.93858
 23
       -0.49664
 33
       -1.44406
999
Fixed Shading:Mir-SHADING GROUP 1 FACE 37
  0
3DFACE
  8
Fixed Shading
 62
  9
 10
       -0.93858
 20
       -0.49664
 30
       -1.44406
 11
       -1.04210
 21
       -0.50339
 31
       -1.05775
 12
       -1.04210
 22
       -0.10345
 32
       -1.05077
 13
       -0.93858
 23
       -0.09670
 33
       -1.43708
999
Fixed Shading:SHADING GROUP 1 FACE 38
  0
3DFACE
  8
Fixed Shading
 62
  9
 10
       -0.93471
 20
       -0.49666
 30
       -1.44302
 11
       -1.03824
 21
       -0.50340
 31
       -1.05671
 12
       -1.03824
 22
       -0.10347
 32
       -1.04973
 13
       -0.93471
 23
       -0.09672
 33
       -1.43604
999
Fixed Shading:Mir-SHADING GROUP 1 FACE 38
  0
3DFACE
  8
Fixed Shading
 62
  9
 10
       -0.93471
 20
       -0.09672
 30
       -1.43604
 11
       -1.03824
 21
       -0.10347
 31
       -1.04973
 12
       -1.03824
 22
       -0.50340
 32
       -1.05671
 13
       -0.93471
 23
       -0.49666
 33
       -1.44302
999
Fixed Shading:SHADING GROUP 1 FACE 39
  0
3DFACE
  8
Fixed Shading
 62
  9
 10
       -0.93858
 20
       -0.49664
 30
       -1.44406
 11
       -0.93471
 21
       -0.09672
 31
       -1.43604
 12
       -0.93858
 22
       -0.09670
 32
       -1.43708
 13
       -0.93858
 23
       -0.09670
 33
       -1.43708
999
Fixed Shading:Mir-SHADING GROUP 1 FACE 39
  0
3DFACE
  8
Fixed Shading
 62
  9
 10
       -0.93858
 20
       -0.09670
 30
       -1.43708
 11
       -0.93471
 21
       -0.09672
 31
       -1.43604
 12
       -0.93858
 22
       -0.49664
 32
       -1.44406
 13
       -0.93858
 23
       -0.49664
 33
       -1.44406
999
Fixed Shading:SHADING GROUP 1 FACE 40
  0
3DFACE
  8
Fixed Shading
 62
  9
 10
       -1.04210
 20
       -0.50339
 30
       -1.05775
 11
       -0.93471
 21
       -0.49666
 31
       -1.44302
 12
       -0.93858
 22
       -0.49664
 32
       -1.44406
 13
       -0.93858
 23
       -0.49664
 33
       -1.44406
999
Fixed Shading:Mir-SHADING GROUP 1 FACE 40
  0
3DFACE
  8
Fixed Shading
 62
  9
 10
       -0.93858
 20
       -0.49664
 30
       -1.44406
 11
       -0.93471
 21
       -0.49666
 31
       -1.44302
 12
       -1.04210
 22
       -0.50339
 32
       -1.05775
 13
       -1.04210
 23
       -0.50339
 33
       -1.05775
999
Fixed Shading:SHADING GROUP 1 FACE 41
  0
3DFACE
  8
Fixed Shading
 62
  9
 10
       -1.04210
 20
       -0.10345
 30
       -1.05077
 11
       -1.03824
 21
       -0.50340
 31
       -1.05671
 12
       -1.04210
 22
       -0.50339
 32
       -1.05775
 13
       -1.04210
 23
       -0.50339
 33
       -1.05775
999
Fixed Shading:Mir-SHADING GROUP 1 FACE 41
  0
3DFACE
  8
Fixed Shading
 62
  9
 10
       -1.04210
 20
       -0.50339
 30
       -1.05775
 11
       -1.03824
 21
       -0.50340
 31
       -1.05671
 12
       -1.04210
 22
       -0.10345
 32
       -1.05077
 13
       -1.04210
 23
       -0.10345
 33
       -1.05077
999
Fixed Shading:SHADING GROUP 1 FACE 42
  0
3DFACE
  8
Fixed Shading
 62
  9
 10
       -0.93858
 20
       -0.09670
 30
       -1.43708
 11
       -1.03824
 21
       -0.10347
 31
       -1.04973
 12
       -1.04210
 22
       -0.10345
 32
       -1.05077
 13
       -1.04210
 23
       -0.10345
 33
       -1.05077
999
Fixed Shading:Mir-SHADING GROUP 1 FACE 42
  0
3DFACE
  8
Fixed Shading
 62
  9
 10
       -1.04210
 20
       -0.10345
 30
       -1.05077
 11
       -1.03824
 21
       -0.10347
 31
       -1.04973
 12
       -0.93858
 22
       -0.09670
 32
       -1.43708
 13
       -0.93858
 23
       -0.09670
 33
       -1.43708
999
Fixed Shading:SHADING GROUP 1 FACE 43
  0
3DFACE
  8
Fixed Shading
 62
  9
 10
       -1.43858
 20
       -0.09670
 30
       -1.43708
 11
       -1.54210
 21
       -0.10345
 31
       -1.05077
 12
       -1.54210
 22
       -0.50339
 32
       -1.05775
 13
       -1.43858
 23
       -0.49664
 33
       -1.44406
999
Fixed Shading:Mir-SHADING GROUP 1 FACE 43
  0
3DFACE
  8
Fixed Shading
 62
  9
 10
       -1.43858
 20
       -0.49664
 30
       -1.44406
 11
       -1.54210
 21
       -0.50339
 31
       -1.05775
 12
       -1.54210
 22
       -0.10345
 32
       -1.05077
 13
       -1.43858
 23
       -0.09670
 33
       -1.43708
999
Fixed Shading:SHADING GROUP 1 FACE 44
  0
3DFACE
  8
Fixed Shading
 62
  9
 10
       -1.43471
 20
       -0.49666
 30
       -1.44302
 11
       -1.53824
 21
       -0.50340
 31
       -1.05671
 12
       -1.53824
 22
       -0.10347
 32
       -1.04973
 13
       -1.43471
 23
       -0.09672
 33
       -1.43604
999
Fixed Shading:Mir-SHADING GROUP 1 FACE 44
  0
3DFACE
  8
Fixed Shading
 62
  9
 10
       -1.43471
 20
       -0.09672
 30
       -1.43604
 11
       -1.53824
 21
       -0.10347
 31
       -1.04973
 12
       -1.53824
 22
       -0.50340
 32
       -1.05671
 13
       -1.43471
 23
       -0.49666
 33
       -1.44302
999
Fixed Shading:SHADING GROUP 1 FACE 45
  0
3DFACE
  8
Fixed Shading
 62
  9
 10
       -1.43858
 20
       -0.49664
 30
       -1.44406
 11
       -1.43471
 21
       -0.09672
 31
       -1.43604
 12
       -1.43858
 22
       -0.09670
 32
       -1.43708
 13
       -1.43858
 23
       -0.09670
 33
       -1.43708
999
Fixed Shading:Mir-SHADING GROUP 1 FACE 45
  0
3DFACE
  8
Fixed Shading
 62
  9
 10
       -1.43858
 20
       -0.09670
 30
       -1.43708
 11
       -1.43471
 21
       -0.09672
 31
       -1.43604
 12
       -1.43858
 22
       -0.49664
 32
       -1.44406
 13
       -1.43858
 23
       -0.49664
 33
       -1.44406
999
Fixed Shading:SHADING GROUP 1 FACE 46
  0
3DFACE
  8
Fixed Shading
 62
  9
 10
       -1.54210
 20
       -0.50339
 30
       -1.05775
 11
       -1.43471
 21
       -0.49666
 31
       -1.44302
 12
       -1.43858
 22
       -0.49664
 32
       -1.44406
 13
       -1.43858
 23
       -0.49664
 33
       -1.44406
999
Fixed Shading:Mir-SHADING GROUP 1 FACE 46
  0
3DFACE
  8
Fixed Shading
 62
  9
 10
       -1.43858
 20
       -0.49664
 30
       -1.44406
 11
       -1.43471
 21
       -0.49666
 31
       -1.44302
 12
       -1.54210
 22
       -0.50339
 32
       -1.05775
 13
       -1.54210
 23
       -0.50339
 33
       -1.05775
999
Fixed Shading:SHADING GROUP 1 FACE 47
  0
3DFACE
  8
Fixed Shading
 62
  9
 10
       -1.54210
 20
       -0.10345
 30
       -1.05077
 11
       -1.53824
 21
       -0.50340
 31
       -1.05671
 12
       -1.54210
 22
       -0.50339
 32
       -1.05775
 13
       -1.54210
 23
       -0.50339
 33
       -1.05775
999
Fixed Shading:Mir-SHADING GROUP 1 FACE 47
  0
3DFACE
  8
Fixed Shading
 62
  9
 10
       -1.54210
 20
       -0.50339
 30
       -1.05775
 11
       -1.53824
 21
       -0.50340
 31
       -1.05671
 12
       -1.54210
 22
       -0.10345
 32
       -1.05077
 13
       -1.54210
 23
       -0.10345
 33
       -1.05077
999
Fixed Shading:SHADING GROUP 1 FACE 48
  0
3DFACE
  8
Fixed Shading
 62
  9
 10
       -1.43858
 20
       -0.09670
 30
       -1.43708
 11
       -1.53824
 21
       -0.10347
 31
       -1.04973
 12
       -1.54210
 22
       -0.10345
 32
       -1.05077
 13
       -1.54210
 23
       -0.10345
 33
       -1.05077
999
Fixed Shading:Mir-SHADING GROUP 1 FACE 48
  0
3DFACE
  8
Fixed Shading
 62
  9
 10
       -1.54210
 20
       -0.10345
 30
       -1.05077
 11
       -1.53824
 21
       -0.10347
 31
       -1.04973
 12
       -1.43858
 22
       -0.09670
 32
       -1.43708
 13
       -1.43858
 23
       -0.09670
 33
       -1.43708
999
Fixed Shading:SHADING GROUP 1 FACE 49
  0
3DFACE
  8
Fixed Shading
 62
  9
 10
       -1.93858
 20
       -0.09670
 30
       -1.43708
 11
       -2.04210
 21
       -0.10345
 31
       -1.05077
 12
       -2.04210
 22
       -0.50339
 32
       -1.05775
 13
       -1.93858
 23
       -0.49664
 33
       -1.44406
999
Fixed Shading:Mir-SHADING GROUP 1 FACE 49
  0
3DFACE
  8
Fixed Shading
 62
  9
 10
       -1.93858
 20
       -0.49664
 30
       -1.44406
 11
       -2.04210
 21
       -0.50339
 31
       -1.05775
 12
       -2.04210
 22
       -0.10345
 32
       -1.05077
 13
       -1.93858
 23
       -0.09670
 33
       -1.43708
999
Fixed Shading:SHADING GROUP 1 FACE 50
  0
3DFACE
  8
Fixed Shading
 62
  9
 10
       -1.93471
 20
       -0.49666
 30
       -1.44302
 11
       -2.03824
 21
       -0.50340
 31
       -1.05671
 12
       -2.03824
 22
       -0.10347
 32
       -1.04973
 13
       -1.93471
 23
       -0.09672
 33
       -1.43604
999
Fixed Shading:Mir-SHADING GROUP 1 FACE 50
  0
3DFACE
  8
Fixed Shading
 62
  9
 10
       -1.93471
 20
       -0.09672
 30
       -1.43604
 11
       -2.03824
 21
       -0.10347
 31
       -1.04973
 12
       -2.03824
 22
       -0.50340
 32
       -1.05671
 13
       -1.93471
 23
       -0.49666
 33
       -1.44302
999
Fixed Shading:SHADING GROUP 1 FACE 51
  0
3DFACE
  8
Fixed Shading
 62
  9
 10
       -1.93858
 20
       -0.49664
 30
       -1.44406
 11
       -1.93471
 21
       -0.09672
 31
       -1.43604
 12
       -1.93858
 22
       -0.09670
 32
       -1.43708
 13
       -1.93858
 23
       -0.09670
 33
       -1.43708
999
Fixed Shading:Mir-SHADING GROUP 1 FACE 51
  0
3DFACE
  8
Fixed Shading
 62
  9
 10
       -1.93858
 20
       -0.09670
 30
       -1.43708
 11
       -1.93471
 21
       -0.09672
 31
       -1.43604
 12
       -1.93858
 22
       -0.49664
 32
       -1.44406
 13
       -1.93858
 23
       -0.49664
 33
       -1.44406
999
Fixed Shading:SHADING GROUP 1 FACE 52
  0
3DFACE
  8
Fixed Shading
 62
  9
 10
       -2.04210
 20
       -0.50339
 30
       -1.05775
 11
       -1.93471
 21
       -0.49666
 31
       -1.44302
 12
       -1.93858
 22
       -0.49664
 32
       -1.44406
 13
       -1.93858
 23
       -0.49664
 33
       -1.44406
999
Fixed Shading:Mir-SHADING GROUP 1 FACE 52
  0
3DFACE
  8
Fixed Shading
 62
  9
 10
       -1.93858
 20
       -0.49664
 30
       -1.44406
 11
       -1.93471
 21
       -0.49666
 31
       -1.44302
 12
       -2.04210
 22
       -0.50339
 32
       -1.05775
 13
       -2.04210
 23
       -0.50339
 33
       -1.05775
999
Fixed Shading:SHADING GROUP 1 FACE 53
  0
3DFACE
  8
Fixed Shading
 62
  9
 10
       -2.04210
 20
       -0.10345
 30
       -1.05077
 11
       -2.03824
 21
       -0.50340
 31
       -1.05671
 12
       -2.04210
 22
       -0.50339
 32
       -1.05775
 13
       -2.04210
 23
       -0.50339
 33
       -1.05775
999
Fixed Shading:Mir-SHADING GROUP 1 FACE 53
  0
3DFACE
  8
Fixed Shading
 62
  9
 10
       -2.04210
 20
       -0.50339
 30
       -1.05775
 11
       -2.03824
 21
       -0.50340
 31
       -1.05671
 12
       -2.04210
 22
       -0.10345
 32
       -1.05077
 13
       -2.04210
 23
       -0.10345
 33
       -1.05077
999
Fixed Shading:SHADING GROUP 1 FACE 54
  0
3DFACE
  8
Fixed Shading
 62
  9
 10
       -1.93858
 20
       -0.09670
 30
       -1.43708
 11
       -2.03824
 21
       -0.10347
 31
       -1.04973
 12
       -2.04210
 22
       -0.10345
 32
       -1.05077
 13
       -2.04210
 23
       -0.10345
 33
       -1.05077
999
Fixed Shading:Mir-SHADING GROUP 1 FACE 54
  0
3DFACE
  8
Fixed Shading
 62
  9
 10
       -2.04210
 20
       -0.10345
 30
       -1.05077
 11
       -2.03824
 21
       -0.10347
 31
       -1.04973
 12
       -1.93858
 22
       -0.09670
 32
       -1.43708
 13
       -1.93858
 23
       -0.09670
 33
       -1.43708
999
Fixed Shading:SHADING GROUP 1 FACE 55
  0
3DFACE
  8
Fixed Shading
 62
  9
 10
        2.06142
 20
       -0.09670
 30
       -0.93708
 11
        1.95790
 21
       -0.10345
 31
       -0.55077
 12
        1.95790
 22
       -0.50339
 32
       -0.55775
 13
        2.06142
 23
       -0.49664
 33
       -0.94406
999
Fixed Shading:Mir-SHADING GROUP 1 FACE 55
  0
3DFACE
  8
Fixed Shading
 62
  9
 10
        2.06142
 20
       -0.49664
 30
       -0.94406
 11
        1.95790
 21
       -0.50339
 31
       -0.55775
 12
        1.95790
 22
       -0.10345
 32
       -0.55077
 13
        2.06142
 23
       -0.09670
 33
       -0.93708
999
Fixed Shading:SHADING GROUP 1 FACE 56
  0
3DFACE
  8
Fixed Shading
 62
  9
 10
        2.06529
 20
       -0.49666
 30
       -0.94302
 11
        1.96176
 21
       -0.50340
 31
       -0.55671
 12
        1.96176
 22
       -0.10347
 32
       -0.54973
 13
        2.06529
 23
       -0.09672
 33
       -0.93604
999
Fixed Shading:Mir-SHADING GROUP 1 FACE 56
  0
3DFACE
  8
Fixed Shading
 62
  9
 10
        2.06529
 20
       -0.09672
 30
       -0.93604
 11
        1.96176
 21
       -0.10347
 31
       -0.54973
 12
        1.96176
 22
       -0.50340
 32
       -0.55671
 13
        2.06529
 23
       -0.49666
 33
       -0.94302
999
Fixed Shading:SHADING GROUP 1 FACE 57
  0
3DFACE
  8
Fixed Shading
 62
  9
 10
        2.06142
 20
       -0.49664
 30
       -0.94406
 11
        2.06529
 21
       -0.09672
 31
       -0.93604
 12
        2.06142
 22
       -0.09670
 32
       -0.93708
 13
        2.06142
 23
       -0.09670
 33
       -0.93708
999
Fixed Shading:Mir-SHADING GROUP 1 FACE 57
  0
3DFACE
  8
Fixed Shading
 62
  9
 10
        2.06142
 20
       -0.09670
 30
       -0.93708
 11
        2.06529
 21
       -0.09672
 31
       -0.93604
 12
        2.06142
 22
       -0.49664
 32
       -0.94406
 13
        2.06142
 23
       -0.49664
 33
       -0.94406
999
Fixed Shading:SHADING GROUP 1 FACE 58
  0
3DFACE
  8
Fixed Shading
 62
  9
 10
        1.95790
 20
       -0.50339
 30
       -0.55775
 11
        2.06529
 21
       -0.49666
 31
       -0.94302
 12
        2.06142
 22
       -0.49664
 32
       -0.94406
 13
        2.06142
 23
       -0.49664
 33
       -0.94406
999
Fixed Shading:Mir-SHADING GROUP 1 FACE 58
  0
3DFACE
  8
Fixed Shading
 62
  9
 10
        2.06142
 20
       -0.49664
 30
       -0.94406
 11
        2.06529
 21
       -0.49666
 31
       -0.94302
 12
        1.95790
 22
       -0.50339
 32
       -0.55775
 13
        1.95790
 23
       -0.50339
 33
       -0.55775
999
Fixed Shading:SHADING GROUP 1 FACE 59
  0
3DFACE
  8
Fixed Shading
 62
  9
 10
        1.95790
 20
       -0.10345
 30
       -0.55077
 11
        1.96176
 21
       -0.50340
 31
       -0.55671
 12
        1.95790
 22
       -0.50339
 32
       -0.55775
 13
        1.95790
 23
       -0.50339
 33
       -0.55775
999
Fixed Shading:Mir-SHADING GROUP 1 FACE 59
  0
3DFACE
  8
Fixed Shading
 62
  9
 10
        1.95790
 20
       -0.50339
 30
       -0.55775
 11
        1.96176
 21
       -0.50340
 31
       -0.55671
 12
        1.95790
 22
       -0.10345
 32
       -0.55077
 13
        1.95790
 23
       -0.10345
 33
       -0.55077
999
Fixed Shading:SHADING GROUP 1 FACE 60
  0
3DFACE
  8
Fixed Shading
 62
  9
 10
        2.06142
 20
       -0.09670
 30
       -0.93708
 11
        1.96176
 21
       -0.10347
 31
       -0.54973
 12
        1.95790
 22
       -0.10345
 32
       -0.55077
 13
        1.95790
 23
       -0.10345
 33
       -0.55077
999
Fixed Shading:Mir-SHADING GROUP 1 FACE 60
  0
3DFACE
  8
Fixed Shading
 62
  9
 10
        1.95790
 20
       -0.10345
 30
       -0.55077
 11
        1.96176
 21
       -0.10347
 31
       -0.54973
 12
        2.06142
 22
       -0.09670
 32
       -0.93708
 13
        2.06142
 23
       -0.09670
 33
       -0.93708
999
Fixed Shading:SHADING GROUP 1 FACE 61
  0
3DFACE
  8
Fixed Shading
 62
  9
 10
        1.56142
 20
       -0.09670
 30
       -0.93708
 11
        1.45790
 21
       -0.10345
 31
       -0.55077
 12
        1.45790
 22
       -0.50339
 32
       -0.55775
 13
        1.56142
 23
       -0.49664
 33
       -0.94406
999
Fixed Shading:Mir-SHADING GROUP 1 FACE 61
  0
3DFACE
  8
Fixed Shading
 62
  9
 10
        1.56142
 20
       -0.49664
 30
       -0.94406
 11
        1.45790
 21
       -0.50339
 31
       -0.55775
 12
        1.45790
 22
       -0.10345
 32
       -0.55077
 13
        1.56142
 23
       -0.09670
 33
       -0.93708
999
Fixed Shading:SHADING GROUP 1 FACE 62
  0
3DFACE
  8
Fixed Shading
 62
  9
 10
        1.56529
 20
       -0.49666
 30
       -0.94302
 11
        1.46176
 21
       -0.50340
 31
       -0.55671
 12
        1.46176
 22
       -0.10347
 32
       -0.54973
 13
        1.56529
 23
       -0.09672
 33
       -0.93604
999
Fixed Shading:Mir-SHADING GROUP 1 FACE 62
  0
3DFACE
  8
Fixed Shading
 62
  9
 10
        1.56529
 20
       -0.09672
 30
       -0.93604
 11
        1.46176
 21
       -0.10347
 31
       -0.54973
 12
        1.46176
 22
       -0.50340
 32
       -0.55671
 13
        1.56529
 23
       -0.49666
 33
       -0.94302
999
Fixed Shading:SHADING GROUP 1 FACE 63
  0
3DFACE
  8
Fixed Shading
 62
  9
 10
        1.56142
 20
       -0.49664
 30
       -0.94406
 11
        1.56529
 21
       -0.09672
 31
       -0.93604
 12
        1.56142
 22
       -0.09670
 32
       -0.93708
 13
        1.56142
 23
       -0.09670
 33
       -0.93708
999
Fixed Shading:Mir-SHADING GROUP 1 FACE 63
  0
3DFACE
  8
Fixed Shading
 62
  9
 10
        1.56142
 20
       -0.09670
 30
       -0.93708
 11
        1.56529
 21
       -0.09672
 31
       -0.93604
 12
        1.56142
 22
       -0.49664
 32
       -0.94406
 13
        1.56142
 23
       -0.49664
 33
       -0.94406
999
Fixed Shading:SHADING GROUP 1 FACE 64
  0
3DFACE
  8
Fixed Shading
 62
  9
 10
        1.45790
 20
       -0.50339
 30
       -0.55775
 11
        1.56529
 21
       -0.49666
 31
       -0.94302
 12
        1.56142
 22
       -0.49664
 32
       -0.94406
 13
        1.56142
 23
       -0.49664
 33
       -0.94406
999
Fixed Shading:Mir-SHADING GROUP 1 FACE 64
  0
3DFACE
  8
Fixed Shading
 62
  9
 10
        1.56142
 20
       -0.49664
 30
       -0.94406
 11
        1.56529
 21
       -0.49666
 31
       -0.94302
 12
        1.45790
 22
       -0.50339
 32
       -0.55775
 13
        1.45790
 23
       -0.50339
 33
       -0.55775
999
Fixed Shading:SHADING GROUP 1 FACE 65
  0
3DFACE
  8
Fixed Shading
 62
  9
 10
        1.45790
 20
       -0.10345
 30
       -0.55077
 11
        1.46176
 21
       -0.50340
 31
       -0.55671
 12
        1.45790
 22
       -0.50339
 32
       -0.55775
 13
        1.45790
 23
       -0.50339
 33
       -0.55775
999
Fixed Shading:Mir-SHADING GROUP 1 FACE 65
  0
3DFACE
  8
Fixed Shading
 62
  9
 10
        1.45790
 20
       -0.50339
 30
       -0.55775
 11
        1.46176
 21
       -0.50340
 31
       -0.55671
 12
        1.45790
 22
       -0.10345
 32
       -0.55077
 13
        1.45790
 23
       -0.10345
 33
       -0.55077
999
Fixed Shading:SHADING GROUP 1 FACE 66
  0
3DFACE
  8
Fixed Shading
 62
  9
 10
        1.56142
 20
       -0.09670
 30
       -0.93708
 11
        1.46176
 21
       -0.10347
 31
       -0.54973
 12
        1.45790
 22
       -0.10345
 32
       -0.55077
 13
        1.45790
 23
       -0.10345
 33
       -0.55077
999
Fixed Shading:Mir-SHADING GROUP 1 FACE 66
  0
3DFACE
  8
Fixed Shading
 62
  9
 10
        1.45790
 20
       -0.10345
 30
       -0.55077
 11
        1.46176
 21
       -0.10347
 31
       -0.54973
 12
        1.56142
 22
       -0.09670
 32
       -0.93708
 13
        1.56142
 23
       -0.09670
 33
       -0.93708
999
Fixed Shading:SHADING GROUP 1 FACE 67
  0
3DFACE
  8
Fixed Shading
 62
  9
 10
        1.06142
 20
       -0.09670
 30
       -0.93708
 11
        0.95790
 21
       -0.10345
 31
       -0.55077
 12
        0.95790
 22
       -0.50339
 32
       -0.55775
 13
        1.06142
 23
       -0.49664
 33
       -0.94406
999
Fixed Shading:Mir-SHADING GROUP 1 FACE 67
  0
3DFACE
  8
Fixed Shading
 62
  9
 10
        1.06142
 20
       -0.49664
 30
       -0.94406
 11
        0.95790
 21
       -0.50339
 31
       -0.55775
 12
        0.95790
 22
       -0.10345
 32
       -0.55077
 13
        1.06142
 23
       -0.09670
 33
       -0.93708
999
Fixed Shading:SHADING GROUP 1 FACE 68
  0
3DFACE
  8
Fixed Shading
 62
  9
 10
        1.06529
 20
       -0.49666
 30
       -0.94302
 11
        0.96176
 21
       -0.50340
 31
       -0.55671
 12
        0.96176
 22
       -0.10347
 32
       -0.54973
 13
        1.06529
 23
       -0.09672
 33
       -0.93604
999
Fixed Shading:Mir-SHADING GROUP 1 FACE 68
  0
3DFACE
  8
Fixed Shading
 62
  9
 10
        1.06529
 20
       -0.09672
 30
       -0.93604
 11
        0.96176
 21
       -0.10347
 31
       -0.54973
 12
        0.96176
 22
       -0.50340
 32
       -0.55671
 13
        1.06529
 23
       -0.49666
 33
       -0.94302
999
Fixed Shading:SHADING GROUP 1 FACE 69
  0
3DFACE
  8
Fixed Shading
 62
  9
 10
        1.06142
 20
       -0.49664
 30
       -0.94406
 11
        1.06529
 21
       -0.09672
 31
       -0.93604
 12
        1.06142
 22
       -0.09670
 32
       -0.93708
 13
        1.06142
 23
       -0.09670
 33
       -0.93708
999
Fixed Shading:Mir-SHADING GROUP 1 FACE 69
  0
3DFACE
  8
Fixed Shading
 62
  9
 10
        1.06142
 20
       -0.09670
 30
       -0.93708
 11
        1.06529
 21
       -0.09672
 31
       -0.93604
 12
        1.06142
 22
       -0.49664
 32
       -0.94406
 13
        1.06142
 23
       -0.49664
 33
       -0.94406
999
Fixed Shading:SHADING GROUP 1 FACE 70
  0
3DFACE
  8
Fixed Shading
 62
  9
 10
        0.95790
 20
       -0.50339
 30
       -0.55775
 11
        1.06529
 21
       -0.49666
 31
       -0.94302
 12
        1.06142
 22
       -0.49664
 32
       -0.94406
 13
        1.06142
 23
       -0.49664
 33
       -0.94406
999
Fixed Shading:Mir-SHADING GROUP 1 FACE 70
  0
3DFACE
  8
Fixed Shading
 62
  9
 10
        1.06142
 20
       -0.49664
 30
       -0.94406
 11
        1.06529
 21
       -0.49666
 31
       -0.94302
 12
        0.95790
 22
       -0.50339
 32
       -0.55775
 13
        0.95790
 23
       -0.50339
 33
       -0.55775
999
Fixed Shading:SHADING GROUP 1 FACE 71
  0
3DFACE
  8
Fixed Shading
 62
  9
 10
        0.95790
 20
       -0.10345
 30
       -0.55077
 11
        0.96176
 21
       -0.50340
 31
       -0.55671
 12
        0.95790
 22
       -0.50339
 32
       -0.55775
 13
        0.95790
 23
       -0.50339
 33
       -0.55775
999
Fixed Shading:Mir-SHADING GROUP 1 FACE 71
  0
3DFACE
  8
Fixed Shading
 62
  9
 10
        0.95790
 20
       -0.50339
 30
       -0.55775
 11
        0.96176
 21
       -0.50340
 31
       -0.55671
 12
        0.95790
 22
       -0.10345
 32
       -0.55077
 13
        0.95790
 23
       -0.10345
 33
       -0.55077
999
Fixed Shading:SHADING GROUP 1 FACE 72
  0
3DFACE
  8
Fixed Shading
 62
  9
 10
        1.06142
 20
       -0.09670
 30
       -0.93708
 11
        0.96176
 21
       -0.10347
 31
       -0.54973
 12
        0.95790
 22
       -0.10345
 32
       -0.55077
 13
        0.95790
 23
       -0.10345
 33
       -0.55077
999
Fixed Shading:Mir-SHADING GROUP 1 FACE 72
  0
3DFACE
  8
Fixed Shading
 62
  9
 10
        0.95790
 20
       -0.10345
 30
       -0.55077
 11
        0.96176
 21
       -0.10347
 31
       -0.54973
 12
        1.06142
 22
       -0.09670
 32
       -0.93708
 13
        1.06142
 23
       -0.09670
 33
       -0.93708
999
Fixed Shading:SHADING GROUP 1 FACE 73
  0
3DFACE
  8
Fixed Shading
 62
  9
 10
        0.56142
 20
       -0.09670
 30
       -0.93708
 11
        0.45790
 21
       -0.10345
 31
       -0.55077
 12
        0.45790
 22
       -0.50339
 32
       -0.55775
 13
        0.56142
 23
       -0.49664
 33
       -0.94406
999
Fixed Shading:Mir-SHADING GROUP 1 FACE 73
  0
3DFACE
  8
Fixed Shading
 62
  9
 10
        0.56142
 20
       -0.49664
 30
       -0.94406
 11
        0.45790
 21
       -0.50339
 31
       -0.55775
 12
        0.45790
 22
       -0.10345
 32
       -0.55077
 13
        0.56142
 23
       -0.09670
 33
       -0.93708
999
Fixed Shading:SHADING GROUP 1 FACE 74
  0
3DFACE
  8
Fixed Shading
 62
  9
 10
        0.56529
 20
       -0.49666
 30
       -0.94302
 11
        0.46176
 21
       -0.50340
 31
       -0.55671
 12
        0.46176
 22
       -0.10347
 32
       -0.54973
 13
        0.56529
 23
       -0.09672
 33
       -0.93604
999
Fixed Shading:Mir-SHADING GROUP 1 FACE 74
  0
3DFACE
  8
Fixed Shading
 62
  9
 10
        0.56529
 20
       -0.09672
 30
       -0.93604
 11
        0.46176
 21
       -0.10347
 31
       -0.54973
 12
        0.46176
 22
       -0.50340
 32
       -0.55671
 13
        0.56529
 23
       -0.49666
 33
       -0.94302
999
Fixed Shading:SHADING GROUP 1 FACE 75
  0
3DFACE
  8
Fixed Shading
 62
  9
 10
        0.56142
 20
       -0.49664
 30
       -0.94406
 11
        0.56529
 21
       -0.09672
 31
       -0.93604
 12
        0.56142
 22
       -0.09670
 32
       -0.93708
 13
        0.56142
 23
       -0.09670
 33
       -0.93708
999
Fixed Shading:Mir-SHADING GROUP 1 FACE 75
  0
3DFACE
  8
Fixed Shading
 62
  9
 10
        0.56142
 20
       -0.09670
 30
       -0.93708
 11
        0.56529
 21
       -0.09672
 31
       -0.93604
 12
        0.56142
 22
       -0.49664
 32
       -0.94406
 13
        0.56142
 23
       -0.49664
 33
       -0.94406
999
Fixed Shading:SHADING GROUP 1 FACE 76
  0
3DFACE
  8
Fixed Shading
 62
  9
 10
        0.45790
 20
       -0.50339
 30
       -0.55775
 11
        0.56529
 21
       -0.49666
 31
       -0.94302
 12
        0.56142
 22
       -0.49664
 32
       -0.94406
 13
        0.56142
 23
       -0.49664
 33
       -0.94406
999
Fixed Shading:Mir-SHADING GROUP 1 FACE 76
  0
3DFACE
  8
Fixed Shading
 62
  9
 10
        0.56142
 20
       -0.49664
 30
       -0.94406
 11
        0.56529
 21
       -0.49666
 31
       -0.94302
 12
        0.45790
 22
       -0.50339
 32
       -0.55775
 13
        0.45790
 23
       -0.50339
 33
       -0.55775
999
Fixed Shading:SHADING GROUP 1 FACE 77
  0
3DFACE
  8
Fixed Shading
 62
  9
 10
        0.45790
 20
       -0.10345
 30
       -0.55077
 11
        0.46176
 21
       -0.50340
 31
       -0.55671
 12
        0.45790
 22
       -0.50339
 32
       -0.55775
 13
        0.45790
 23
       -0.50339
 33
       -0.55775
999
Fixed Shading:Mir-SHADING GROUP 1 FACE 77
  0
3DFACE
  8
Fixed Shading
 62
  9
 10
        0.45790
 20
       -0.50339
 30
       -0.55775
 11
        0.46176
 21
       -0.50340
 31
       -0.55671
 12
        0.45790
 22
       -0.10345
 32
       -0.55077
 13
        0.45790
 23
       -0.10345
 33
       -0.55077
999
Fixed Shading:SHADING GROUP 1 FACE 78
  0
3DFACE
  8
Fixed Shading
 62
  9
 10
        0.56142
 20
       -0.09670
 30
       -0.93708
 11
        0.46176
 21
       -0.10347
 31
       -0.54973
 12
        0.45790
 22
       -0.10345
 32
       -0.55077
 13
        0.45790
 23
       -0.10345
 33
       -0.55077
999
Fixed Shading:Mir-SHADING GROUP 1 FACE 78
  0
3DFACE
  8
Fixed Shading
 62
  9
 10
        0.45790
 20
       -0.10345
 30
       -0.55077
 11
        0.46176
 21
       -0.10347
 31
       -0.54973
 12
        0.56142
 22
       -0.09670
 32
       -0.93708
 13
        0.56142
 23
       -0.09670
 33
       -0.93708
999
Fixed Shading:SHADING GROUP 1 FACE 79
  0
3DFACE
  8
Fixed Shading
 62
  9
 10
        0.06142
 20
       -0.09670
 30
       -0.93708
 11
       -0.04210
 21
       -0.10345
 31
       -0.55077
 12
       -0.04210
 22
       -0.50339
 32
       -0.55775
 13
        0.06142
 23
       -0.49664
 33
       -0.94406
999
Fixed Shading:Mir-SHADING GROUP 1 FACE 79
  0
3DFACE
  8
Fixed Shading
 62
  9
 10
        0.06142
 20
       -0.49664
 30
       -0.94406
 11
       -0.04210
 21
       -0.50339
 31
       -0.55775
 12
       -0.04210
 22
       -0.10345
 32
       -0.55077
 13
        0.06142
 23
       -0.09670
 33
       -0.93708
999
Fixed Shading:SHADING GROUP 1 FACE 80
  0
3DFACE
  8
Fixed Shading
 62
  9
 10
        0.06529
 20
       -0.49666
 30
       -0.94302
 11
       -0.03824
 21
       -0.50340
 31
       -0.55671
 12
       -0.03824
 22
       -0.10347
 32
       -0.54973
 13
        0.06529
 23
       -0.09672
 33
       -0.93604
999
Fixed Shading:Mir-SHADING GROUP 1 FACE 80
  0
3DFACE
  8
Fixed Shading
 62
  9
 10
        0.06529
 20
       -0.09672
 30
       -0.93604
 11
       -0.03824
 21
       -0.10347
 31
       -0.54973
 12
       -0.03824
 22
       -0.50340
 32
       -0.55671
 13
        0.06529
 23
       -0.49666
 33
       -0.94302
999
Fixed Shading:SHADING GROUP 1 FACE 81
  0
3DFACE
  8
Fixed Shading
 62
  9
 10
        0.06142
 20
       -0.49664
 30
       -0.94406
 11
        0.06529
 21
       -0.09672
 31
       -0.93604
 12
        0.06142
 22
       -0.09670
 32
       -0.93708
 13
        0.06142
 23
       -0.09670
 33
       -0.93708
999
Fixed Shading:Mir-SHADING GROUP 1 FACE 81
  0
3DFACE
  8
Fixed Shading
 62
  9
 10
        0.06142
 20
       -0.09670
 30
       -0.93708
 11
        0.06529
 21
       -0.09672
 31
       -0.93604
 12
        0.06142
 22
       -0.49664
 32
       -0.94406
 13
        0.06142
 23
       -0.49664
 33
       -0.94406
999
Fixed Shading:SHADING GROUP 1 FACE 82
  0
3DFACE
  8
Fixed Shading
 62
  9
 10
       -0.04210
 20
       -0.50339
 30
       -0.55775
 11
        0.06529
 21
       -0.49666
 31
       -0.94302
 12
        0.06142
 22
       -0.49664
 32
       -0.94406
 13
        0.06142
 23
       -0.49664
 33
       -0.94406
999
Fixed Shading:Mir-SHADING GROUP 1 FACE 82
  0
3DFACE
  8
Fixed Shading
 62
  9
 10
        0.06142
 20
       -0.49664
 30
       -0.94406
 11
        0.06529
 21
       -0.49666
 31
       -0.94302
 12
       -0.04210
 22
       -0.50339
 32
       -0.55775
 13
       -0.04210
 23
       -0.50339
 33
       -0.55775
999
Fixed Shading:SHADING GROUP 1 FACE 83
  0
3DFACE
  8
Fixed Shading
 62
  9
 10
       -0.04210
 20
       -0.10345
 30
       -0.55077
 11
       -0.03824
 21
       -0.50340
 31
       -0.55671
 12
       -0.04210
 22
       -0.50339
 32
       -0.55775
 13
       -0.04210
 23
       -0.50339
 33
       -0.55775
999
Fixed Shading:Mir-SHADING GROUP 1 FACE 83
  0
3DFACE
  8
Fixed Shading
 62
  9
 10
       -0.04210
 20
       -0.50339
 30
       -0.55775
 11
       -0.03824
 21
       -0.50340
 31
       -0.55671
 12
       -0.04210
 22
       -0.10345
 32
       -0.55077
 13
       -0.04210
 23
       -0.10345
 33
       -0.55077
999
Fixed Shading:SHADING GROUP 1 FACE 84
  0
3DFACE
  8
Fixed Shading
 62
  9
 10
        0.06142
 20
       -0.09670
 30
       -0.93708
 11
       -0.03824
 21
       -0.10347
 31
       -0.54973
 12
       -0.04210
 22
       -0.10345
 32
       -0.55077
 13
       -0.04210
 23
       -0.10345
 33
       -0.55077
999
Fixed Shading:Mir-SHADING GROUP 1 FACE 84
  0
3DFACE
  8
Fixed Shading
 62
  9
 10
       -0.04210
 20
       -0.10345
 30
       -0.55077
 11
       -0.03824
 21
       -0.10347
 31
       -0.54973
 12
        0.06142
 22
       -0.09670
 32
       -0.93708
 13
        0.06142
 23
       -0.09670
 33
       -0.93708
999
Fixed Shading:SHADING GROUP 1 FACE 85
  0
3DFACE
  8
Fixed Shading
 62
  9
 10
       -0.43858
 20
       -0.09670
 30
       -0.93708
 11
       -0.54210
 21
       -0.10345
 31
       -0.55077
 12
       -0.54210
 22
       -0.50339
 32
       -0.55775
 13
       -0.43858
 23
       -0.49664
 33
       -0.94406
999
Fixed Shading:Mir-SHADING GROUP 1 FACE 85
  0
3DFACE
  8
Fixed Shading
 62
  9
 10
       -0.43858
 20
       -0.49664
 30
       -0.94406
 11
       -0.54210
 21
       -0.50339
 31
       -0.55775
 12
       -0.54210
 22
       -0.10345
 32
       -0.55077
 13
       -0.43858
 23
       -0.09670
 33
       -0.93708
999
Fixed Shading:SHADING GROUP 1 FACE 86
  0
3DFACE
  8
Fixed Shading
 62
  9
 10
       -0.43471
 20
       -0.49666
 30
       -0.94302
 11
       -0.53824
 21
       -0.50340
 31
       -0.55671
 12
       -0.53824
 22
       -0.10347
 32
       -0.54973
 13
       -0.43471
 23
       -0.09672
 33
       -0.93604
999
Fixed Shading:Mir-SHADING GROUP 1 FACE 86
  0
3DFACE
  8
Fixed Shading
 62
  9
 10
       -0.43471
 20
       -0.09672
 30
       -0.93604
 11
       -0.53824
 21
       -0.10347
 31
       -0.54973
 12
       -0.53824
 22
       -0.50340
 32
       -0.55671
 13
       -0.43471
 23
       -0.49666
 33
       -0.94302
999
Fixed Shading:SHADING GROUP 1 FACE 87
  0
3DFACE
  8
Fixed Shading
 62
  9
 10
       -0.43858
 20
       -0.49664
 30
       -0.94406
 11
       -0.43471
 21
       -0.09672
 31
       -0.93604
 12
       -0.43858
 22
       -0.09670
 32
       -0.93708
 13
       -0.43858
 23
       -0.09670
 33
       -0.93708
999
Fixed Shading:Mir-SHADING GROUP 1 FACE 87
  0
3DFACE
  8
Fixed Shading
 62
  9
 10
       -0.43858
 20
       -0.09670
 30
       -0.93708
 11
       -0.43471
 21
       -0.09672
 31
       -0.93604
 12
       -0.43858
 22
       -0.49664
 32
       -0.94406
 13
       -0.43858
 23
       -0.49664
 33
       -0.94406
999
Fixed Shading:SHADING GROUP 1 FACE 88
  0
3DFACE
  8
Fixed Shading
 62
  9
 10
       -0.54210
 20
       -0.50339
 30
       -0.55775
 11
       -0.43471
 21
       -0.49666
 31
       -0.94302
 12
       -0.43858
 22
       -0.49664
 32
       -0.94406
 13
       -0.43858
 23
       -0.49664
 33
       -0.94406
999
Fixed Shading:Mir-SHADING GROUP 1 FACE 88
  0
3DFACE
  8
Fixed Shading
 62
  9
 10
       -0.43858
 20
       -0.49664
 30
       -0.94406
 11
       -0.43471
 21
       -0.49666
 31
       -0.94302
 12
       -0.54210
 22
       -0.50339
 32
       -0.55775
 13
       -0.54210
 23
       -0.50339
 33
       -0.55775
999
Fixed Shading:SHADING GROUP 1 FACE 89
  0
3DFACE
  8
Fixed Shading
 62
  9
 10
       -0.54210
 20
       -0.10345
 30
       -0.55077
 11
       -0.53824
 21
       -0.50340
 31
       -0.55671
 12
       -0.54210
 22
       -0.50339
 32
       -0.55775
 13
       -0.54210
 23
       -0.50339
 33
       -0.55775
999
Fixed Shading:Mir-SHADING GROUP 1 FACE 89
  0
3DFACE
  8
Fixed Shading
 62
  9
 10
       -0.54210
 20
       -0.50339
 30
       -0.55775
 11
       -0.53824
 21
       -0.50340
 31
       -0.55671
 12
       -0.54210
 22
       -0.10345
 32
       -0.55077
 13
       -0.54210
 23
       -0.10345
 33
       -0.55077
999
Fixed Shading:SHADING GROUP 1 FACE 90
  0
3DFACE
  8
Fixed Shading
 62
  9
 10
       -0.43858
 20
       -0.09670
 30
       -0.93708
 11
       -0.53824
 21
       -0.10347
 31
       -0.54973
 12
       -0.54210
 22
       -0.10345
 32
       -0.55077
 13
       -0.54210
 23
       -0.10345
 33
       -0.55077
999
Fixed Shading:Mir-SHADING GROUP 1 FACE 90
  0
3DFACE
  8
Fixed Shading
 62
  9
 10
       -0.54210
 20
       -0.10345
 30
       -0.55077
 11
       -0.53824
 21
       -0.10347
 31
       -0.54973
 12
       -0.43858
 22
       -0.09670
 32
       -0.93708
 13
       -0.43858
 23
       -0.09670
 33
       -0.93708
999
Fixed Shading:SHADING GROUP 1 FACE 91
  0
3DFACE
  8
Fixed Shading
 62
  9
 10
       -0.93858
 20
       -0.09670
 30
       -0.93708
 11
       -1.04210
 21
       -0.10345
 31
       -0.55077
 12
       -1.04210
 22
       -0.50339
 32
       -0.55775
 13
       -0.93858
 23
       -0.49664
 33
       -0.94406
999
Fixed Shading:Mir-SHADING GROUP 1 FACE 91
  0
3DFACE
  8
Fixed Shading
 62
  9
 10
       -0.93858
 20
       -0.49664
 30
       -0.94406
 11
       -1.04210
 21
       -0.50339
 31
       -0.55775
 12
       -1.04210
 22
       -0.10345
 32
       -0.55077
 13
       -0.93858
 23
       -0.09670
 33
       -0.93708
999
Fixed Shading:SHADING GROUP 1 FACE 92
  0
3DFACE
  8
Fixed Shading
 62
  9
 10
       -0.93471
 20
       -0.49666
 30
       -0.94302
 11
       -1.03824
 21
       -0.50340
 31
       -0.55671
 12
       -1.03824
 22
       -0.10347
 32
       -0.54973
 13
       -0.93471
 23
       -0.09672
 33
       -0.93604
999
Fixed Shading:Mir-SHADING GROUP 1 FACE 92
  0
3DFACE
  8
Fixed Shading
 62
  9
 10
       -0.93471
 20
       -0.09672
 30
       -0.93604
 11
       -1.03824
 21
       -0.10347
 31
       -0.54973
 12
       -1.03824
 22
       -0.50340
 32
       -0.55671
 13
       -0.93471
 23
       -0.49666
 33
       -0.94302
999
Fixed Shading:SHADING GROUP 1 FACE 93
  0
3DFACE
  8
Fixed Shading
 62
  9
 10
       -0.93858
 20
       -0.49664
 30
       -0.94406
 11
       -0.93471
 21
       -0.09672
 31
       -0.93604
 12
       -0.93858
 22
       -0.09670
 32
       -0.93708
 13
       -0.93858
 23
       -0.09670
 33
       -0.93708
999
Fixed Shading:Mir-SHADING GROUP 1 FACE 93
  0
3DFACE
  8
Fixed Shading
 62
  9
 10
       -0.93858
 20
       -0.09670
 30
       -0.93708
 11
       -0.93471
 21
       -0.09672
 31
       -0.93604
 12
       -0.93858
 22
       -0.49664
 32
       -0.94406
 13
       -0.93858
 23
       -0.49664
 33
       -0.94406
999
Fixed Shading:SHADING GROUP 1 FACE 94
  0
3DFACE
  8
Fixed Shading
 62
  9
 10
       -1.04210
 20
       -0.50339
 30
       -0.55775
 11
       -0.93471
 21
       -0.49666
 31
       -0.94302
 12
       -0.93858
 22
       -0.49664
 32
       -0.94406
 13
       -0.93858
 23
       -0.49664
 33
       -0.94406
999
Fixed Shading:Mir-SHADING GROUP 1 FACE 94
  0
3DFACE
  8
Fixed Shading
 62
  9
 10
       -0.93858
 20
       -0.49664
 30
       -0.94406
 11
       -0.93471
 21
       -0.49666
 31
       -0.94302
 12
       -1.04210
 22
       -0.50339
 32
       -0.55775
 13
       -1.04210
 23
       -0.50339
 33
       -0.55775
999
Fixed Shading:SHADING GROUP 1 FACE 95
  0
3DFACE
  8
Fixed Shading
 62
  9
 10
       -1.04210
 20
       -0.10345
 30
       -0.55077
 11
       -1.03824
 21
       -0.50340
 31
       -0.55671
 12
       -1.04210
 22
       -0.50339
 32
       -0.55775
 13
       -1.04210
 23
       -0.50339
 33
       -0.55775
999
Fixed Shading:Mir-SHADING GROUP 1 FACE 95
  0
3DFACE
  8
Fixed Shading
 62
  9
 10
       -1.04210
 20
       -0.50339
 30
       -0.55775
 11
       -1.03824
 21
       -0.50340
 31
       -0.55671
 12
       -1.04210
 22
       -0.10345
 32
       -0.55077
 13
       -1.04210
 23
       -0.10345
 33
       -0.55077
999
Fixed Shading:SHADING GROUP 1 FACE 96
  0
3DFACE
  8
Fixed Shading
 62
  9
 10
       -0.93858
 20
       -0.09670
 30
       -0.93708
 11
       -1.03824
 21
       -0.10347
 31
       -0.54973
 12
       -1.04210
 22
       -0.10345
 32
       -0.55077
 13
       -1.04210
 23
       -0.10345
 33
       -0.55077
999
Fixed Shading:Mir-SHADING GROUP 1 FACE 96
  0
3DFACE
  8
Fixed Shading
 62
  9
 10
       -1.04210
 20
       -0.10345
 30
       -0.55077
 11
       -1.03824
 21
       -0.10347
 31
       -0.54973
 12
       -0.93858
 22
       -0.09670
 32
       -0.93708
 13
       -0.93858
 23
       -0.09670
 33
       -0.93708
999
Fixed Shading:SHADING GROUP 1 FACE 97
  0
3DFACE
  8
Fixed Shading
 62
  9
 10
       -1.43858
 20
       -0.09670
 30
       -0.93708
 11
       -1.54210
 21
       -0.10345
 31
       -0.55077
 12
       -1.54210
 22
       -0.50339
 32
       -0.55775
 13
       -1.43858
 23
       -0.49664
 33
       -0.94406
999
Fixed Shading:Mir-SHADING GROUP 1 FACE 97
  0
3DFACE
  8
Fixed Shading
 62
  9
 10
       -1.43858
 20
       -0.49664
 30
       -0.94406
 11
       -1.54210
 21
       -0.50339
 31
       -0.55775
 12
       -1.54210
 22
       -0.10345
 32
       -0.55077
 13
       -1.43858
 23
       -0.09670
 33
       -0.93708
999
Fixed Shading:SHADING GROUP 1 FACE 98
  0
3DFACE
  8
Fixed Shading
 62
  9
 10
       -1.43471
 20
       -0.49666
 30
       -0.94302
 11
       -1.53824
 21
       -0.50340
 31
       -0.55671
 12
       -1.53824
 22
       -0.10347
 32
       -0.54973
 13
       -1.43471
 23
       -0.09672
 33
       -0.93604
999
Fixed Shading:Mir-SHADING GROUP 1 FACE 98
  0
3DFACE
  8
Fixed Shading
 62
  9
 10
       -1.43471
 20
       -0.09672
 30
       -0.93604
 11
       -1.53824
 21
       -0.10347
 31
       -0.54973
 12
       -1.53824
 22
       -0.50340
 32
       -0.55671
 13
       -1.43471
 23
       -0.49666
 33
       -0.94302
999
Fixed Shading:SHADING GROUP 1 FACE 99
  0
3DFACE
  8
Fixed Shading
 62
  9
 10
       -1.43858
 20
       -0.49664
 30
       -0.94406
 11
       -1.43471
 21
       -0.09672
 31
       -0.93604
 12
       -1.43858
 22
       -0.09670
 32
       -0.93708
 13
       -1.43858
 23
       -0.09670
 33
       -0.93708
999
Fixed Shading:Mir-SHADING GROUP 1 FACE 99
  0
3DFACE
  8
Fixed Shading
 62
  9
 10
       -1.43858
 20
       -0.09670
 30
       -0.93708
 11
       -1.43471
 21
       -0.09672
 31
       -0.93604
 12
       -1.43858
 22
       -0.49664
 32
       -0.94406
 13
       -1.43858
 23
       -0.49664
 33
       -0.94406
999
Fixed Shading:SHADING GROUP 1 FACE 100
  0
3DFACE
  8
Fixed Shading
 62
  9
 10
       -1.54210
 20
       -0.50339
 30
       -0.55775
 11
       -1.43471
 21
       -0.49666
 31
       -0.94302
 12
       -1.43858
 22
       -0.49664
 32
       -0.94406
 13
       -1.43858
 23
       -0.49664
 33
       -0.94406
999
Fixed Shading:Mir-SHADING GROUP 1 FACE 100
  0
3DFACE
  8
Fixed Shading
 62
  9
 10
       -1.43858
 20
       -0.49664
 30
       -0.94406
 11
       -1.43471
 21
       -0.49666
 31
       -0.94302
 12
       -1.54210
 22
       -0.50339
 32
       -0.55775
 13
       -1.54210
 23
       -0.50339
 33
       -0.55775
999
Fixed Shading:SHADING GROUP 1 FACE 101
  0
3DFACE
  8
Fixed Shading
 62
  9
 10
       -1.54210
 20
       -0.10345
 30
       -0.55077
 11
       -1.53824
 21
       -0.50340
 31
       -0.55671
 12
       -1.54210
 22
       -0.50339
 32
       -0.55775
 13
       -1.54210
 23
       -0.50339
 33
       -0.55775
999
Fixed Shading:Mir-SHADING GROUP 1 FACE 101
  0
3DFACE
  8
Fixed Shading
 62
  9
 10
       -1.54210
 20
       -0.50339
 30
       -0.55775
 11
       -1.53824
 21
       -0.50340
 31
       -0.55671
 12
       -1.54210
 22
       -0.10345
 32
       -0.55077
 13
       -1.54210
 23
       -0.10345
 33
       -0.55077
999
Fixed Shading:SHADING GROUP 1 FACE 102
  0
3DFACE
  8
Fixed Shading
 62
  9
 10
       -1.43858
 20
       -0.09670
 30
       -0.93708
 11
       -1.53824
 21
       -0.10347
 31
       -0.54973
 12
       -1.54210
 22
       -0.10345
 32
       -0.55077
 13
       -1.54210
 23
       -0.10345
 33
       -0.55077
999
Fixed Shading:Mir-SHADING GROUP 1 FACE 102
  0
3DFACE
  8
Fixed Shading
 62
  9
 10
       -1.54210
 20
       -0.10345
 30
       -0.55077
 11
       -1.53824
 21
       -0.10347
 31
       -0.54973
 12
       -1.43858
 22
       -0.09670
 32
       -0.93708
 13
       -1.43858
 23
       -0.09670
 33
       -0.93708
999
Fixed Shading:SHADING GROUP 1 FACE 103
  0
3DFACE
  8
Fixed Shading
 62
  9
 10
       -1.93858
 20
       -0.09670
 30
       -0.93708
 11
       -2.04210
 21
       -0.10345
 31
       -0.55077
 12
       -2.04210
 22
       -0.50339
 32
       -0.55775
 13
       -1.93858
 23
       -0.49664
 33
       -0.94406
999
Fixed Shading:Mir-SHADING GROUP 1 FACE 103
  0
3DFACE
  8
Fixed Shading
 62
  9
 10
       -1.93858
 20
       -0.49664
 30
       -0.94406
 11
       -2.04210
 21
       -0.50339
 31
       -0.55775
 12
       -2.04210
 22
       -0.10345
 32
       -0.55077
 13
       -1.93858
 23
       -0.09670
 33
       -0.93708
999
Fixed Shading:SHADING GROUP 1 FACE 104
  0
3DFACE
  8
Fixed Shading
 62
  9
 10
       -1.93471
 20
       -0.49666
 30
       -0.94302
 11
       -2.03824
 21
       -0.50340
 31
       -0.55671
 12
       -2.03824
 22
       -0.10347
 32
       -0.54973
 13
       -1.93471
 23
       -0.09672
 33
       -0.93604
999
Fixed Shading:Mir-SHADING GROUP 1 FACE 104
  0
3DFACE
  8
Fixed Shading
 62
  9
 10
       -1.93471
 20
       -0.09672
 30
       -0.93604
 11
       -2.03824
 21
       -0.10347
 31
       -0.54973
 12
       -2.03824
 22
       -0.50340
 32
       -0.55671
 13
       -1.93471
 23
       -0.49666
 33
       -0.94302
999
Fixed Shading:SHADING GROUP 1 FACE 105
  0
3DFACE
  8
Fixed Shading
 62
  9
 10
       -1.93858
 20
       -0.49664
 30
       -0.94406
 11
       -1.93471
 21
       -0.09672
 31
       -0.93604
 12
       -1.93858
 22
       -0.09670
 32
       -0.93708
 13
       -1.93858
 23
       -0.09670
 33
       -0.93708
999
Fixed Shading:Mir-SHADING GROUP 1 FACE 105
  0
3DFACE
  8
Fixed Shading
 62
  9
 10
       -1.93858
 20
       -0.09670
 30
       -0.93708
 11
       -1.93471
 21
       -0.09672
 31
       -0.93604
 12
       -1.93858
 22
       -0.49664
 32
       -0.94406
 13
       -1.93858
 23
       -0.49664
 33
       -0.94406
999
Fixed Shading:SHADING GROUP 1 FACE 106
  0
3DFACE
  8
Fixed Shading
 62
  9
 10
       -2.04210
 20
       -0.50339
 30
       -0.55775
 11
       -1.93471
 21
       -0.49666
 31
       -0.94302
 12
       -1.93858
 22
       -0.49664
 32
       -0.94406
 13
       -1.93858
 23
       -0.49664
 33
       -0.94406
999
Fixed Shading:Mir-SHADING GROUP 1 FACE 106
  0
3DFACE
  8
Fixed Shading
 62
  9
 10
       -1.93858
 20
       -0.49664
 30
       -0.94406
 11
       -1.93471
 21
       -0.49666
 31
       -0.94302
 12
       -2.04210
 22
       -0.50339
 32
       -0.55775
 13
       -2.04210
 23
       -0.50339
 33
       -0.55775
999
Fixed Shading:SHADING GROUP 1 FACE 107
  0
3DFACE
  8
Fixed Shading
 62
  9
 10
       -2.04210
 20
       -0.10345
 30
       -0.55077
 11
       -2.03824
 21
       -0.50340
 31
       -0.55671
 12
       -2.04210
 22
       -0.50339
 32
       -0.55775
 13
       -2.04210
 23
       -0.50339
 33
       -0.55775
999
Fixed Shading:Mir-SHADING GROUP 1 FACE 107
  0
3DFACE
  8
Fixed Shading
 62
  9
 10
       -2.04210
 20
       -0.50339
 30
       -0.55775
 11
       -2.03824
 21
       -0.50340
 31
       -0.55671
 12
       -2.04210
 22
       -0.10345
 32
       -0.55077
 13
       -2.04210
 23
       -0.10345
 33
       -0.55077
999
Fixed Shading:SHADING GROUP 1 FACE 108
  0
3DFACE
  8
Fixed Shading
 62
  9
 10
       -1.93858
 20
       -0.09670
 30
       -0.93708
 11
       -2.03824
 21
       -0.10347
 31
       -0.54973
 12
       -2.04210
 22
       -0.10345
 32
       -0.55077
 13
       -2.04210
 23
       -0.10345
 33
       -0.55077
999
Fixed Shading:Mir-SHADING GROUP 1 FACE 108
  0
3DFACE
  8
Fixed Shading
 62
  9
 10
       -2.04210
 20
       -0.10345
 30
       -0.55077
 11
       -2.03824
 21
       -0.10347
 31
       -0.54973
 12
       -1.93858
 22
       -0.09670
 32
       -0.93708
 13
       -1.93858
 23
       -0.09670
 33
       -0.93708
999
Fixed Shading:SHADING GROUP 1 FACE 109
  0
3DFACE
  8
Fixed Shading
 62
  9
 10
        2.06142
 20
       -0.10594
 30
       -0.05336
 11
        1.95790
 21
       -0.49225
 31
       -0.04661
 12
        1.95790
 22
       -0.49923
 32
       -0.44655
 13
        2.06142
 23
       -0.11292
 33
       -0.45330
999
Fixed Shading:Mir-SHADING GROUP 1 FACE 109
  0
3DFACE
  8
Fixed Shading
 62
  9
 10
        2.06142
 20
       -0.11292
 30
       -0.45330
 11
        1.95790
 21
       -0.49923
 31
       -0.44655
 12
        1.95790
 22
       -0.49225
 32
       -0.04661
 13
        2.06142
 23
       -0.10594
 33
       -0.05336
999
Fixed Shading:SHADING GROUP 1 FACE 110
  0
3DFACE
  8
Fixed Shading
 62
  9
 10
        2.06529
 20
       -0.11396
 30
       -0.45328
 11
        1.96176
 21
       -0.50027
 31
       -0.44653
 12
        1.96176
 22
       -0.49329
 32
       -0.04660
 13
        2.06529
 23
       -0.10698
 33
       -0.05334
999
Fixed Shading:Mir-SHADING GROUP 1 FACE 110
  0
3DFACE
  8
Fixed Shading
 62
  9
 10
        2.06529
 20
       -0.10698
 30
       -0.05334
 11
        1.96176
 21
       -0.49329
 31
       -0.04660
 12
        1.96176
 22
       -0.50027
 32
       -0.44653
 13
        2.06529
 23
       -0.11396
 33
       -0.45328
999
Fixed Shading:SHADING GROUP 1 FACE 111
  0
3DFACE
  8
Fixed Shading
 62
  9
 10
        2.06142
 20
       -0.11292
 30
       -0.45330
 11
        2.06529
 21
       -0.10698
 31
       -0.05334
 12
        2.06142
 22
       -0.10594
 32
       -0.05336
 13
        2.06142
 23
       -0.10594
 33
       -0.05336
999
Fixed Shading:Mir-SHADING GROUP 1 FACE 111
  0
3DFACE
  8
Fixed Shading
 62
  9
 10
        2.06142
 20
       -0.10594
 30
       -0.05336
 11
        2.06529
 21
       -0.10698
 31
       -0.05334
 12
        2.06142
 22
       -0.11292
 32
       -0.45330
 13
        2.06142
 23
       -0.11292
 33
       -0.45330
999
Fixed Shading:SHADING GROUP 1 FACE 112
  0
3DFACE
  8
Fixed Shading
 62
  9
 10
        1.95790
 20
       -0.49923
 30
       -0.44655
 11
        2.06529
 21
       -0.11396
 31
       -0.45328
 12
        2.06142
 22
       -0.11292
 32
       -0.45330
 13
        2.06142
 23
       -0.11292
 33
       -0.45330
999
Fixed Shading:Mir-SHADING GROUP 1 FACE 112
  0
3DFACE
  8
Fixed Shading
 62
  9
 10
        2.06142
 20
       -0.11292
 30
       -0.45330
 11
        2.06529
 21
       -0.11396
 31
       -0.45328
 12
        1.95790
 22
       -0.49923
 32
       -0.44655
 13
        1.95790
 23
       -0.49923
 33
       -0.44655
999
Fixed Shading:SHADING GROUP 1 FACE 113
  0
3DFACE
  8
Fixed Shading
 62
  9
 10
        1.95790
 20
       -0.49225
 30
       -0.04661
 11
        1.96176
 21
       -0.50027
 31
       -0.44653
 12
        1.95790
 22
       -0.49923
 32
       -0.44655
 13
        1.95790
 23
       -0.49923
 33
       -0.44655
999
Fixed Shading:Mir-SHADING GROUP 1 FACE 113
  0
3DFACE
  8
Fixed Shading
 62
  9
 10
        1.95790
 20
       -0.49923
 30
       -0.44655
 11
        1.96176
 21
       -0.50027
 31
       -0.44653
 12
        1.95790
 22
       -0.49225
 32
       -0.04661
 13
        1.95790
 23
       -0.49225
 33
       -0.04661
999
Fixed Shading:SHADING GROUP 1 FACE 114
  0
3DFACE
  8
Fixed Shading
 62
  9
 10
        2.06142
 20
       -0.10594
 30
       -0.05336
 11
        1.96176
 21
       -0.49329
 31
       -0.04660
 12
        1.95790
 22
       -0.49225
 32
       -0.04661
 13
        1.95790
 23
       -0.49225
 33
       -0.04661
999
Fixed Shading:Mir-SHADING GROUP 1 FACE 114
  0
3DFACE
  8
Fixed Shading
 62
  9
 10
        1.95790
 20
       -0.49225
 30
       -0.04661
 11
        1.96176
 21
       -0.49329
 31
       -0.04660
 12
        2.06142
 22
       -0.10594
 32
       -0.05336
 13
        2.06142
 23
       -0.10594
 33
       -0.05336
999
Fixed Shading:SHADING GROUP 1 FACE 115
  0
3DFACE
  8
Fixed Shading
 62
  9
 10
        1.56142
 20
       -0.10594
 30
       -0.05336
 11
        1.45790
 21
       -0.49225
 31
       -0.04661
 12
        1.45790
 22
       -0.49923
 32
       -0.44655
 13
        1.56142
 23
       -0.11292
 33
       -0.45330
999
Fixed Shading:Mir-SHADING GROUP 1 FACE 115
  0
3DFACE
  8
Fixed Shading
 62
  9
 10
        1.56142
 20
       -0.11292
 30
       -0.45330
 11
        1.45790
 21
       -0.49923
 31
       -0.44655
 12
        1.45790
 22
       -0.49225
 32
       -0.04661
 13
        1.56142
 23
       -0.10594
 33
       -0.05336
999
Fixed Shading:SHADING GROUP 1 FACE 116
  0
3DFACE
  8
Fixed Shading
 62
  9
 10
        1.56529
 20
       -0.11396
 30
       -0.45328
 11
        1.46176
 21
       -0.50027
 31
       -0.44653
 12
        1.46176
 22
       -0.49329
 32
       -0.04660
 13
        1.56529
 23
       -0.10698
 33
       -0.05334
999
Fixed Shading:Mir-SHADING GROUP 1 FACE 116
  0
3DFACE
  8
Fixed Shading
 62
  9
 10
        1.56529
 20
       -0.10698
 30
       -0.05334
 11
        1.46176
 21
       -0.49329
 31
       -0.04660
 12
        1.46176
 22
       -0.50027
 32
       -0.44653
 13
        1.56529
 23
       -0.11396
 33
       -0.45328
999
Fixed Shading:SHADING GROUP 1 FACE 117
  0
3DFACE
  8
Fixed Shading
 62
  9
 10
        1.56142
 20
       -0.11292
 30
       -0.45330
 11
        1.56529
 21
       -0.10698
 31
       -0.05334
 12
        1.56142
 22
       -0.10594
 32
       -0.05336
 13
        1.56142
 23
       -0.10594
 33
       -0.05336
999
Fixed Shading:Mir-SHADING GROUP 1 FACE 117
  0
3DFACE
  8
Fixed Shading
 62
  9
 10
        1.56142
 20
       -0.10594
 30
       -0.05336
 11
        1.56529
 21
       -0.10698
 31
       -0.05334
 12
        1.56142
 22
       -0.11292
 32
       -0.45330
 13
        1.56142
 23
       -0.11292
 33
       -0.45330
999
Fixed Shading:SHADING GROUP 1 FACE 118
  0
3DFACE
  8
Fixed Shading
 62
  9
 10
        1.45790
 20
       -0.49923
 30
       -0.44655
 11
        1.56529
 21
       -0.11396
 31
       -0.45328
 12
        1.56142
 22
       -0.11292
 32
       -0.45330
 13
        1.56142
 23
       -0.11292
 33
       -0.45330
999
Fixed Shading:Mir-SHADING GROUP 1 FACE 118
  0
3DFACE
  8
Fixed Shading
 62
  9
 10
        1.56142
 20
       -0.11292
 30
       -0.45330
 11
        1.56529
 21
       -0.11396
 31
       -0.45328
 12
        1.45790
 22
       -0.49923
 32
       -0.44655
 13
        1.45790
 23
       -0.49923
 33
       -0.44655
999
Fixed Shading:SHADING GROUP 1 FACE 119
  0
3DFACE
  8
Fixed Shading
 62
  9
 10
        1.45790
 20
       -0.49225
 30
       -0.04661
 11
        1.46176
 21
       -0.50027
 31
       -0.44653
 12
        1.45790
 22
       -0.49923
 32
       -0.44655
 13
        1.45790
 23
       -0.49923
 33
       -0.44655
999
Fixed Shading:Mir-SHADING GROUP 1 FACE 119
  0
3DFACE
  8
Fixed Shading
 62
  9
 10
        1.45790
 20
       -0.49923
 30
       -0.44655
 11
        1.46176
 21
       -0.50027
 31
       -0.44653
 12
        1.45790
 22
       -0.49225
 32
       -0.04661
 13
        1.45790
 23
       -0.49225
 33
       -0.04661
999
Fixed Shading:SHADING GROUP 1 FACE 120
  0
3DFACE
  8
Fixed Shading
 62
  9
 10
        1.56142
 20
       -0.10594
 30
       -0.05336
 11
        1.46176
 21
       -0.49329
 31
       -0.04660
 12
        1.45790
 22
       -0.49225
 32
       -0.04661
 13
        1.45790
 23
       -0.49225
 33
       -0.04661
999
Fixed Shading:Mir-SHADING GROUP 1 FACE 120
  0
3DFACE
  8
Fixed Shading
 62
  9
 10
        1.45790
 20
       -0.49225
 30
       -0.04661
 11
        1.46176
 21
       -0.49329
 31
       -0.04660
 12
        1.56142
 22
       -0.10594
 32
       -0.05336
 13
        1.56142
 23
       -0.10594
 33
       -0.05336
999
Fixed Shading:SHADING GROUP 1 FACE 121
  0
3DFACE
  8
Fixed Shading
 62
  9
 10
        1.06142
 20
       -0.10594
 30
       -0.05336
 11
        0.95790
 21
       -0.49225
 31
       -0.04661
 12
        0.95790
 22
       -0.49923
 32
       -0.44655
 13
        1.06142
 23
       -0.11292
 33
       -0.45330
999
Fixed Shading:Mir-SHADING GROUP 1 FACE 121
  0
3DFACE
  8
Fixed Shading
 62
  9
 10
        1.06142
 20
       -0.11292
 30
       -0.45330
 11
        0.95790
 21
       -0.49923
 31
       -0.44655
 12
        0.95790
 22
       -0.49225
 32
       -0.04661
 13
[...]
 32
        1.25665
 13
        0.06142
 23
       -0.02381
 33
        1.25665
999
Fixed Shading:Mir-SHADING GROUP 1 FACE 297
  0
3DFACE
  8
Fixed Shading
 62
  9
 10
        0.06142
 20
       -0.02381
 30
        1.25665
 11
        0.06529
 21
       -0.02454
 31
        1.25738
 12
        0.06142
 22
       -0.30665
 32
        0.97381
 13
        0.06142
 23
       -0.30665
 33
        0.97381
999
Fixed Shading:SHADING GROUP 1 FACE 298
  0
3DFACE
  8
Fixed Shading
 62
  9
 10
       -0.04210
 20
       -0.57985
 30
        1.24701
 11
        0.06529
 21
       -0.30738
 31
        0.97454
 12
        0.06142
 22
       -0.30665
 32
        0.97381
 13
        0.06142
 23
       -0.30665
 33
        0.97381
999
Fixed Shading:Mir-SHADING GROUP 1 FACE 298
  0
3DFACE
  8
Fixed Shading
 62
  9
 10
        0.06142
 20
       -0.30665
 30
        0.97381
 11
        0.06529
 21
       -0.30738
 31
        0.97454
 12
       -0.04210
 22
       -0.57985
 32
        1.24701
 13
       -0.04210
 23
       -0.57985
 33
        1.24701
999
Fixed Shading:SHADING GROUP 1 FACE 299
  0
3DFACE
  8
Fixed Shading
 62
  9
 10
       -0.04210
 20
       -0.29701
 30
        1.52985
 11
       -0.03824
 21
       -0.58059
 31
        1.24774
 12
       -0.04210
 22
       -0.57985
 32
        1.24701
 13
       -0.04210
 23
       -0.57985
 33
        1.24701
999
Fixed Shading:Mir-SHADING GROUP 1 FACE 299
  0
3DFACE
  8
Fixed Shading
 62
  9
 10
       -0.04210
 20
       -0.57985
 30
        1.24701
 11
       -0.03824
 21
       -0.58059
 31
        1.24774
 12
       -0.04210
 22
       -0.29701
 32
        1.52985
 13
       -0.04210
 23
       -0.29701
 33
        1.52985
999
Fixed Shading:SHADING GROUP 1 FACE 300
  0
3DFACE
  8
Fixed Shading
 62
  9
 10
        0.06142
 20
       -0.02381
 30
        1.25665
 11
       -0.03824
 21
       -0.29774
 31
        1.53059
 12
       -0.04210
 22
       -0.29701
 32
        1.52985
 13
       -0.04210
 23
       -0.29701
 33
        1.52985
999
Fixed Shading:Mir-SHADING GROUP 1 FACE 300
  0
3DFACE
  8
Fixed Shading
 62
  9
 10
       -0.04210
 20
       -0.29701
 30
        1.52985
 11
       -0.03824
 21
       -0.29774
 31
        1.53059
 12
        0.06142
 22
       -0.02381
 32
        1.25665
 13
        0.06142
 23
       -0.02381
 33
        1.25665
999
Fixed Shading:SHADING GROUP 1 FACE 301
  0
3DFACE
  8
Fixed Shading
 62
  9
 10
       -0.43858
 20
       -0.02381
 30
        1.25665
 11
       -0.54210
 21
       -0.29701
 31
        1.52985
 12
       -0.54210
 22
       -0.57985
 32
        1.24701
 13
       -0.43858
 23
       -0.30665
 33
        0.97381
999
Fixed Shading:Mir-SHADING GROUP 1 FACE 301
  0
3DFACE
  8
Fixed Shading
 62
  9
 10
       -0.43858
 20
       -0.30665
 30
        0.97381
 11
       -0.54210
 21
       -0.57985
 31
        1.24701
 12
       -0.54210
 22
       -0.29701
 32
        1.52985
 13
       -0.43858
 23
       -0.02381
 33
        1.25665
999
Fixed Shading:SHADING GROUP 1 FACE 302
  0
3DFACE
  8
Fixed Shading
 62
  9
 10
       -0.43471
 20
       -0.30738
 30
        0.97454
 11
       -0.53824
 21
       -0.58059
 31
        1.24774
 12
       -0.53824
 22
       -0.29774
 32
        1.53059
 13
       -0.43471
 23
       -0.02454
 33
        1.25738
999
Fixed Shading:Mir-SHADING GROUP 1 FACE 302
  0
3DFACE
  8
Fixed Shading
 62
  9
 10
       -0.43471
 20
       -0.02454
 30
        1.25738
 11
       -0.53824
 21
       -0.29774
 31
        1.53059
 12
       -0.53824
 22
       -0.58059
 32
        1.24774
 13
       -0.43471
 23
       -0.30738
 33
        0.97454
999
Fixed Shading:SHADING GROUP 1 FACE 303
  0
3DFACE
  8
Fixed Shading
 62
  9
 10
       -0.43858
 20
       -0.30665
 30
        0.97381
 11
       -0.43471
 21
       -0.02454
 31
        1.25738
 12
       -0.43858
 22
       -0.02381
 32
        1.25665
 13
       -0.43858
 23
       -0.02381
 33
        1.25665
999
Fixed Shading:Mir-SHADING GROUP 1 FACE 303
  0
3DFACE
  8
Fixed Shading
 62
  9
 10
       -0.43858
 20
       -0.02381
 30
        1.25665
 11
       -0.43471
 21
       -0.02454
 31
        1.25738
 12
       -0.43858
 22
       -0.30665
 32
        0.97381
 13
       -0.43858
 23
       -0.30665
 33
        0.97381
999
Fixed Shading:SHADING GROUP 1 FACE 304
  0
3DFACE
  8
Fixed Shading
 62
  9
 10
       -0.54210
 20
       -0.57985
 30
        1.24701
 11
       -0.43471
 21
       -0.30738
 31
        0.97454
 12
       -0.43858
 22
       -0.30665
 32
        0.97381
 13
       -0.43858
 23
       -0.30665
 33
        0.97381
999
Fixed Shading:Mir-SHADING GROUP 1 FACE 304
  0
3DFACE
  8
Fixed Shading
 62
  9
 10
       -0.43858
 20
       -0.30665
 30
        0.97381
 11
       -0.43471
 21
       -0.30738
 31
        0.97454
 12
       -0.54210
 22
       -0.57985
 32
        1.24701
 13
       -0.54210
 23
       -0.57985
 33
        1.24701
999
Fixed Shading:SHADING GROUP 1 FACE 305
  0
3DFACE
  8
Fixed Shading
 62
  9
 10
       -0.54210
 20
       -0.29701
 30
        1.52985
 11
       -0.53824
 21
       -0.58059
 31
        1.24774
 12
       -0.54210
 22
       -0.57985
 32
        1.24701
 13
       -0.54210
 23
       -0.57985
 33
        1.24701
999
Fixed Shading:Mir-SHADING GROUP 1 FACE 305
  0
3DFACE
  8
Fixed Shading
 62
  9
 10
       -0.54210
 20
       -0.57985
 30
        1.24701
 11
       -0.53824
 21
       -0.58059
 31
        1.24774
 12
       -0.54210
 22
       -0.29701
 32
        1.52985
 13
       -0.54210
 23
       -0.29701
 33
        1.52985
999
Fixed Shading:SHADING GROUP 1 FACE 306
  0
3DFACE
  8
Fixed Shading
 62
  9
 10
       -0.43858
 20
       -0.02381
 30
        1.25665
 11
       -0.53824
 21
       -0.29774
 31
        1.53059
 12
       -0.54210
 22
       -0.29701
 32
        1.52985
 13
       -0.54210
 23
       -0.29701
 33
        1.52985
999
Fixed Shading:Mir-SHADING GROUP 1 FACE 306
  0
3DFACE
  8
Fixed Shading
 62
  9
 10
       -0.54210
 20
       -0.29701
 30
        1.52985
 11
       -0.53824
 21
       -0.29774
 31
        1.53059
 12
       -0.43858
 22
       -0.02381
 32
        1.25665
 13
       -0.43858
 23
       -0.02381
 33
        1.25665
999
Fixed Shading:SHADING GROUP 1 FACE 307
  0
3DFACE
  8
Fixed Shading
 62
  9
 10
       -0.93858
 20
       -0.02381
 30
        1.25665
 11
       -1.04210
 21
       -0.29701
 31
        1.52985
 12
       -1.04210
 22
       -0.57985
 32
        1.24701
 13
       -0.93858
 23
       -0.30665
 33
        0.97381
999
Fixed Shading:Mir-SHADING GROUP 1 FACE 307
  0
3DFACE
  8
Fixed Shading
 62
  9
 10
       -0.93858
 20
       -0.30665
 30
        0.97381
 11
       -1.04210
 21
       -0.57985
 31
        1.24701
 12
       -1.04210
 22
       -0.29701
 32
        1.52985
 13
       -0.93858
 23
       -0.02381
 33
        1.25665
999
Fixed Shading:SHADING GROUP 1 FACE 308
  0
3DFACE
  8
Fixed Shading
 62
  9
 10
       -0.93471
 20
       -0.30738
 30
        0.97454
 11
       -1.03824
 21
       -0.58059
 31
        1.24774
 12
       -1.03824
 22
       -0.29774
 32
        1.53059
 13
       -0.93471
 23
       -0.02454
 33
        1.25738
999
Fixed Shading:Mir-SHADING GROUP 1 FACE 308
  0
3DFACE
  8
Fixed Shading
 62
  9
 10
       -0.93471
 20
       -0.02454
 30
        1.25738
 11
       -1.03824
 21
       -0.29774
 31
        1.53059
 12
       -1.03824
 22
       -0.58059
 32
        1.24774
 13
       -0.93471
 23
       -0.30738
 33
        0.97454
999
Fixed Shading:SHADING GROUP 1 FACE 309
  0
3DFACE
  8
Fixed Shading
 62
  9
 10
       -0.93858
 20
       -0.30665
 30
        0.97381
 11
       -0.93471
 21
       -0.02454
 31
        1.25738
 12
       -0.93858
 22
       -0.02381
 32
        1.25665
 13
       -0.93858
 23
       -0.02381
 33
        1.25665
999
Fixed Shading:Mir-SHADING GROUP 1 FACE 309
  0
3DFACE
  8
Fixed Shading
 62
  9
 10
       -0.93858
 20
       -0.02381
 30
        1.25665
 11
       -0.93471
 21
       -0.02454
 31
        1.25738
 12
       -0.93858
 22
       -0.30665
 32
        0.97381
 13
       -0.93858
 23
       -0.30665
 33
        0.97381
999
Fixed Shading:SHADING GROUP 1 FACE 310
  0
3DFACE
  8
Fixed Shading
 62
  9
 10
       -1.04210
 20
       -0.57985
 30
        1.24701
 11
       -0.93471
 21
       -0.30738
 31
        0.97454
 12
       -0.93858
 22
       -0.30665
 32
        0.97381
 13
       -0.93858
 23
       -0.30665
 33
        0.97381
999
Fixed Shading:Mir-SHADING GROUP 1 FACE 310
  0
3DFACE
  8
Fixed Shading
 62
  9
 10
       -0.93858
 20
       -0.30665
 30
        0.97381
 11
       -0.93471
 21
       -0.30738
 31
        0.97454
 12
       -1.04210
 22
       -0.57985
 32
        1.24701
 13
       -1.04210
 23
       -0.57985
 33
        1.24701
999
Fixed Shading:SHADING GROUP 1 FACE 311
  0
3DFACE
  8
Fixed Shading
 62
  9
 10
       -1.04210
 20
       -0.29701
 30
        1.52985
 11
       -1.03824
 21
       -0.58059
 31
        1.24774
 12
       -1.04210
 22
       -0.57985
 32
        1.24701
 13
       -1.04210
 23
       -0.57985
 33
        1.24701
999
Fixed Shading:Mir-SHADING GROUP 1 FACE 311
  0
3DFACE
  8
Fixed Shading
 62
  9
 10
       -1.04210
 20
       -0.57985
 30
        1.24701
 11
       -1.03824
 21
       -0.58059
 31
        1.24774
 12
       -1.04210
 22
       -0.29701
 32
        1.52985
 13
       -1.04210
 23
       -0.29701
 33
        1.52985
999
Fixed Shading:SHADING GROUP 1 FACE 312
  0
3DFACE
  8
Fixed Shading
 62
  9
 10
       -0.93858
 20
       -0.02381
 30
        1.25665
 11
       -1.03824
 21
       -0.29774
 31
        1.53059
 12
       -1.04210
 22
       -0.29701
 32
        1.52985
 13
       -1.04210
 23
       -0.29701
 33
        1.52985
999
Fixed Shading:Mir-SHADING GROUP 1 FACE 312
  0
3DFACE
  8
Fixed Shading
 62
  9
 10
       -1.04210
 20
       -0.29701
 30
        1.52985
 11
       -1.03824
 21
       -0.29774
 31
        1.53059
 12
       -0.93858
 22
       -0.02381
 32
        1.25665
 13
       -0.93858
 23
       -0.02381
 33
        1.25665
999
Fixed Shading:SHADING GROUP 1 FACE 313
  0
3DFACE
  8
Fixed Shading
 62
  9
 10
       -1.43858
 20
       -0.02381
 30
        1.25665
 11
       -1.54210
 21
       -0.29701
 31
        1.52985
 12
       -1.54210
 22
       -0.57985
 32
        1.24701
 13
       -1.43858
 23
       -0.30665
 33
        0.97381
999
Fixed Shading:Mir-SHADING GROUP 1 FACE 313
  0
3DFACE
  8
Fixed Shading
 62
  9
 10
       -1.43858
 20
       -0.30665
 30
        0.97381
 11
       -1.54210
 21
       -0.57985
 31
        1.24701
 12
       -1.54210
 22
       -0.29701
 32
        1.52985
 13
       -1.43858
 23
       -0.02381
 33
        1.25665
999
Fixed Shading:SHADING GROUP 1 FACE 314
  0
3DFACE
  8
Fixed Shading
 62
  9
 10
       -1.43471
 20
       -0.30738
 30
        0.97454
 11
       -1.53824
 21
       -0.58059
 31
        1.24774
 12
       -1.53824
 22
       -0.29774
 32
        1.53059
 13
       -1.43471
 23
       -0.02454
 33
        1.25738
999
Fixed Shading:Mir-SHADING GROUP 1 FACE 314
  0
3DFACE
  8
Fixed Shading
 62
  9
 10
       -1.43471
 20
       -0.02454
 30
        1.25738
 11
       -1.53824
 21
       -0.29774
 31
        1.53059
 12
       -1.53824
 22
       -0.58059
 32
        1.24774
 13
       -1.43471
 23
       -0.30738
 33
        0.97454
999
Fixed Shading:SHADING GROUP 1 FACE 315
  0
3DFACE
  8
Fixed Shading
 62
  9
 10
       -1.43858
 20
       -0.30665
 30
        0.97381
 11
       -1.43471
 21
       -0.02454
 31
        1.25738
 12
       -1.43858
 22
       -0.02381
 32
        1.25665
 13
       -1.43858
 23
       -0.02381
 33
        1.25665
999
Fixed Shading:Mir-SHADING GROUP 1 FACE 315
  0
3DFACE
  8
Fixed Shading
 62
  9
 10
       -1.43858
 20
       -0.02381
 30
        1.25665
 11
       -1.43471
 21
       -0.02454
 31
        1.25738
 12
       -1.43858
 22
       -0.30665
 32
        0.97381
 13
       -1.43858
 23
       -0.30665
 33
        0.97381
999
Fixed Shading:SHADING GROUP 1 FACE 316
  0
3DFACE
  8
Fixed Shading
 62
  9
 10
       -1.54210
 20
       -0.57985
 30
        1.24701
 11
       -1.43471
 21
       -0.30738
 31
        0.97454
 12
       -1.43858
 22
       -0.30665
 32
        0.97381
 13
       -1.43858
 23
       -0.30665
 33
        0.97381
999
Fixed Shading:Mir-SHADING GROUP 1 FACE 316
  0
3DFACE
  8
Fixed Shading
 62
  9
 10
       -1.43858
 20
       -0.30665
 30
        0.97381
 11
       -1.43471
 21
       -0.30738
 31
        0.97454
 12
       -1.54210
 22
       -0.57985
 32
        1.24701
 13
       -1.54210
 23
       -0.57985
 33
        1.24701
999
Fixed Shading:SHADING GROUP 1 FACE 317
  0
3DFACE
  8
Fixed Shading
 62
  9
 10
       -1.54210
 20
       -0.29701
 30
        1.52985
 11
       -1.53824
 21
       -0.58059
 31
        1.24774
 12
       -1.54210
 22
       -0.57985
 32
        1.24701
 13
       -1.54210
 23
       -0.57985
 33
        1.24701
999
Fixed Shading:Mir-SHADING GROUP 1 FACE 317
  0
3DFACE
  8
Fixed Shading
 62
  9
 10
       -1.54210
 20
       -0.57985
 30
        1.24701
 11
       -1.53824
 21
       -0.58059
 31
        1.24774
 12
       -1.54210
 22
       -0.29701
 32
        1.52985
 13
       -1.54210
 23
       -0.29701
 33
        1.52985
999
Fixed Shading:SHADING GROUP 1 FACE 318
  0
3DFACE
  8
Fixed Shading
 62
  9
 10
       -1.43858
 20
       -0.02381
 30
        1.25665
 11
       -1.53824
 21
       -0.29774
 31
        1.53059
 12
       -1.54210
 22
       -0.29701
 32
        1.52985
 13
       -1.54210
 23
       -0.29701
 33
        1.52985
999
Fixed Shading:Mir-SHADING GROUP 1 FACE 318
  0
3DFACE
  8
Fixed Shading
 62
  9
 10
       -1.54210
 20
       -0.29701
 30
        1.52985
 11
       -1.53824
 21
       -0.29774
 31
        1.53059
 12
       -1.43858
 22
       -0.02381
 32
        1.25665
 13
       -1.43858
 23
       -0.02381
 33
        1.25665
999
Fixed Shading:SHADING GROUP 1 FACE 319
  0
3DFACE
  8
Fixed Shading
 62
  9
 10
       -1.93858
 20
       -0.02381
 30
        1.25665
 11
       -2.04210
 21
       -0.29701
 31
        1.52985
 12
       -2.04210
 22
       -0.57985
 32
        1.24701
 13
       -1.93858
 23
       -0.30665
 33
        0.97381
999
Fixed Shading:Mir-SHADING GROUP 1 FACE 319
  0
3DFACE
  8
Fixed Shading
 62
  9
 10
       -1.93858
 20
       -0.30665
 30
        0.97381
 11
       -2.04210
 21
       -0.57985
 31
        1.24701
 12
       -2.04210
 22
       -0.29701
 32
        1.52985
 13
       -1.93858
 23
       -0.02381
 33
        1.25665
999
Fixed Shading:SHADING GROUP 1 FACE 320
  0
3DFACE
  8
Fixed Shading
 62
  9
 10
       -1.93471
 20
       -0.30738
 30
        0.97454
 11
       -2.03824
 21
       -0.58059
 31
        1.24774
 12
       -2.03824
 22
       -0.29774
 32
        1.53059
 13
       -1.93471
 23
       -0.02454
 33
        1.25738
999
Fixed Shading:Mir-SHADING GROUP 1 FACE 320
  0
3DFACE
  8
Fixed Shading
 62
  9
 10
       -1.93471
 20
       -0.02454
 30
        1.25738
 11
       -2.03824
 21
       -0.29774
 31
        1.53059
 12
       -2.03824
 22
       -0.58059
 32
        1.24774
 13
       -1.93471
 23
       -0.30738
 33
        0.97454
999
Fixed Shading:SHADING GROUP 1 FACE 321
  0
3DFACE
  8
Fixed Shading
 62
  9
 10
       -1.93858
 20
       -0.30665
 30
        0.97381
 11
       -1.93471
 21
       -0.02454
 31
        1.25738
 12
       -1.93858
 22
       -0.02381
 32
        1.25665
 13
       -1.93858
 23
       -0.02381
 33
        1.25665
999
Fixed Shading:Mir-SHADING GROUP 1 FACE 321
  0
3DFACE
  8
Fixed Shading
 62
  9
 10
       -1.93858
 20
       -0.02381
 30
        1.25665
 11
       -1.93471
 21
       -0.02454
 31
        1.25738
 12
       -1.93858
 22
       -0.30665
 32
        0.97381
 13
       -1.93858
 23
       -0.30665
 33
        0.97381
999
Fixed Shading:SHADING GROUP 1 FACE 322
  0
3DFACE
  8
Fixed Shading
 62
  9
 10
       -2.04210
 20
       -0.57985
 30
        1.24701
 11
       -1.93471
 21
       -0.30738
 31
        0.97454
 12
       -1.93858
 22
       -0.30665
 32
        0.97381
 13
       -1.93858
 23
       -0.30665
 33
        0.97381
999
Fixed Shading:Mir-SHADING GROUP 1 FACE 322
  0
3DFACE
  8
Fixed Shading
 62
  9
 10
       -1.93858
 20
       -0.30665
 30
        0.97381
 11
       -1.93471
 21
       -0.30738
 31
        0.97454
 12
       -2.04210
 22
       -0.57985
 32
        1.24701
 13
       -2.04210
 23
       -0.57985
 33
        1.24701
999
Fixed Shading:SHADING GROUP 1 FACE 323
  0
3DFACE
  8
Fixed Shading
 62
  9
 10
       -2.04210
 20
       -0.29701
 30
        1.52985
 11
       -2.03824
 21
       -0.58059
 31
        1.24774
 12
       -2.04210
 22
       -0.57985
 32
        1.24701
 13
       -2.04210
 23
       -0.57985
 33
        1.24701
999
Fixed Shading:Mir-SHADING GROUP 1 FACE 323
  0
3DFACE
  8
Fixed Shading
 62
  9
 10
       -2.04210
 20
       -0.57985
 30
        1.24701
 11
       -2.03824
 21
       -0.58059
 31
        1.24774
 12
       -2.04210
 22
       -0.29701
 32
        1.52985
 13
       -2.04210
 23
       -0.29701
 33
        1.52985
999
Fixed Shading:SHADING GROUP 1 FACE 324
  0
3DFACE
  8
Fixed Shading
 62
  9
 10
       -1.93858
 20
       -0.02381
 30
        1.25665
 11
       -2.03824
 21
       -0.29774
 31
        1.53059
 12
       -2.04210
 22
       -0.29701
 32
        1.52985
 13
       -2.04210
 23
       -0.29701
 33
        1.52985
999
Fixed Shading:Mir-SHADING GROUP 1 FACE 324
  0
3DFACE
  8
Fixed Shading
 62
  9
 10
       -2.04210
 20
       -0.29701
 30
        1.52985
 11
       -2.03824
 21
       -0.29774
 31
        1.53059
 12
       -1.93858
 22
       -0.02381
 32
        1.25665
 13
       -1.93858
 23
       -0.02381
 33
        1.25665
999
ZONE1:ZONE1_FACE_1
  0
3DFACE
  8
ZONE1
 62
 43
 10
        2.45000
 20
        7.00000
 30
        1.55000
 11
        2.45000
 21
        7.00000
 31
       -1.55000
 12
       -2.45000
 22
        7.00000
 32
       -1.55000
 13
       -2.45000
 23
        7.00000
 33
        1.55000
999
ZONE1:ZONE1_FACE_2
  0
3DFACE
  8
ZONE1
 62
 43
 10
        2.45000
 20
        0.00000
 30
        1.55000
 11
        2.45000
 21
        0.00000
 31
       -1.55000
 12
        2.45000
 22
        7.00000
 32
       -1.55000
 13
        2.45000
 23
        7.00000
 33
        1.55000
999
ZONE1:ZONE1_FACE_3
  0
3DFACE
  8
ZONE1
 62
 43
 10
       -2.45000
 20
        7.00000
 30
        1.55000
 11
       -2.45000
 21
        7.00000
 31
       -1.55000
 12
       -2.45000
 22
        0.00000
 32
       -1.55000
 13
       -2.45000
 23
        0.00000
 33
        1.55000
999
ZONE1:ZONE1_FACE_6
  0
3DFACE
  8
ZONE1
 62
 43
 10
       -2.45000
 20
        0.00000
 30
        1.55000
 11
       -2.45000
 21
        0.00000
 31
       -1.55000
 12
        2.45000
 22
        0.00000
 32
       -1.55000
 13
        2.45000
 23
        0.00000
 33
        1.55000
999
ZONE1:ZONE1_FACE_6_WINDOW_1
  0
3DFACE
  8
ZONE1
 62
143
 10
       -2.25000
 20
        0.00000
 30
        1.50000
 11
       -2.25000
 21
        0.00000
 31
       -1.50000
 12
        2.25000
 22
        0.00000
 32
       -1.50000
 13
        2.25000
 23
        0.00000
 33
        1.50000
999
ZONE1:ZONE1_FACE_5
  0
3DFACE
  8
ZONE1
 62
  8
 10
        2.45000
 20
        7.00000
 30
       -1.55000
 11
        2.45000
 21
        0.00000
 31
       -1.55000
 12
       -2.45000
 22
        0.00000
 32
       -1.55000
 13
       -2.45000
 23
        7.00000
 33
       -1.55000
999
ZONE1:ZONE1_FACE_4
  0
3DFACE
  8
ZONE1
 62
 15
 10
       -2.45000
 20
        7.00000
 30
        1.55000
 11
       -2.45000
 21
        0.00000
 31
        1.55000
 12
        2.45000
 22
        0.00000
 32
        1.55000
 13
        2.45000
 23
        7.00000
 33
        1.55000
999
ZONE1:DayRefPt:1
  0
CIRCLE
  8
ZONE1
 62
 10
 10
        0.00000
 20
        3.50000
 30
       -0.75000
 40
        0.20000
  0
ENDSEC
  0
EOF
