Program Version,EnergyPlus-Windows-OMP-32 7.2.0.006, YMD=2014.05.14 18:47,IDD_Version 7.2.0.006
   ** Warning ** Timestep: Requested number (1) is less than the suggested minimum of 4.
   **   ~~~   ** Please see entry for Timestep in Input/Output Reference for discussion of considerations.
   ** Warning ** GetSurfaceData: Very small surface area[8.00000E-004], Surface=SHADING GROUP 1 FACE 3
   ** Warning ** GetSurfaceData: Very small surface area[8.00000E-004], Surface=Mir-SHADING GROUP 1 FACE 3
   ** Warning ** GetSurfaceData: Very small surface area[8.00000E-004], Surface=SHADING GROUP 1 FACE 4
   ** Warning ** GetSurfaceData: Very small surface area[8.00000E-004], Surface=Mir-SHADING GROUP 1 FACE 4
   ** Warning ** GetSurfaceData: Very small surface area[8.00000E-004], Surface=SHADING GROUP 1 FACE 5
   ** Warning ** GetSurfaceData: Very small surface area[8.00000E-004], Surface=Mir-SHADING GROUP 1 FACE 5
   ** Warning ** GetSurfaceData: Very small surface area[8.00000E-004], Surface=SHADING GROUP 1 FACE 6
   ** Warning ** GetSurfaceData: Very small surface area[8.00000E-004], Surface=Mir-SHADING GROUP 1 FACE 6
   ** Warning ** GetSurfaceData: Very small surface area[8.00000E-004], Surface=SHADING GROUP 1 FACE 9
   ** Warning ** GetSurfaceData: Very small surface area[8.00000E-004], Surface=Mir-SHADING GROUP 1 FACE 9
   ** Warning ** GetSurfaceData: Very small surface area[8.00000E-004], Surface=SHADING GROUP 1 FACE 10
   ** Warning ** GetSurfaceData: Very small surface area[8.00000E-004], Surface=Mir-SHADING GROUP 1 FACE 10
   ** Warning ** GetSurfaceData: Very small surface area[8.00000E-004], Surface=SHADING GROUP 1 FACE 11
   ** Warning ** GetSurfaceData: Very small surface area[8.00000E-004], Surface=Mir-SHADING GROUP 1 FACE 11
   ** Warning ** GetSurfaceData: Very small surface area[8.00000E-004], Surface=SHADING GROUP 1 FACE 12
   ** Warning ** GetSurfaceData: Very small surface area[8.00000E-004], Surface=Mir-SHADING GROUP 1 FACE 12
   ** Warning ** GetSurfaceData: Very small surface area[8.00000E-004], Surface=SHADING GROUP 1 FACE 15
   ** Warning ** GetSurfaceData: Very small surface area[8.00000E-004], Surface=Mir-SHADING GROUP 1 FACE 15
   ** Warning ** GetSurfaceData: Very small surface area[8.00000E-004], Surface=SHADING GROUP 1 FACE 16
   ** Warning ** GetSurfaceData: Very small surface area[8.00000E-004], Surface=Mir-SHADING GROUP 1 FACE 16
   ** Warning ** GetSurfaceData: Very small surface area[8.00000E-004], Surface=SHADING GROUP 1 FACE 17
   ** Warning ** GetSurfaceData: Very small surface area[8.00000E-004], Surface=Mir-SHADING GROUP 1 FACE 17
   ** Warning ** GetSurfaceData: Very small surface area[8.00000E-004], Surface=SHADING GROUP 1 FACE 18
   ** Warning ** GetSurfaceData: Very small surface area[8.00000E-004], Surface=Mir-SHADING GROUP 1 FACE 18
   ** Warning ** GetSurfaceData: Very small surface area[8.00000E-004], Surface=SHADING GROUP 1 FACE 21
   ** Warning ** GetSurfaceData: Very small surface area[8.00000E-004], Surface=Mir-SHADING GROUP 1 FACE 21
   ** Warning ** GetSurfaceData: Very small surface area[8.00000E-004], Surface=SHADING GROUP 1 FACE 22
   ** Warning ** GetSurfaceData: Very small surface area[8.00000E-004], Surface=Mir-SHADING GROUP 1 FACE 22
   ** Warning ** GetSurfaceData: Very small surface area[8.00000E-004], Surface=SHADING GROUP 1 FACE 23
   ** Warning ** GetSurfaceData: Very small surface area[8.00000E-004], Surface=Mir-SHADING GROUP 1 FACE 23
   ** Warning ** GetSurfaceData: Very small surface area[8.00000E-004], Surface=SHADING GROUP 1 FACE 24
   ** Warning ** GetSurfaceData: Very small surface area[8.00000E-004], Surface=Mir-SHADING GROUP 1 FACE 24
   ** Warning ** GetSurfaceData: Very small surface area[8.00000E-004], Surface=SHADING GROUP 1 FACE 27
   ** Warning ** GetSurfaceData: Very small surface area[8.00000E-004], Surface=Mir-SHADING GROUP 1 FACE 27
   ** Warning ** GetSurfaceData: Very small surface area[8.00000E-004], Surface=SHADING GROUP 1 FACE 28
   ** Warning ** GetSurfaceData: Very small surface area[8.00000E-004], Surface=Mir-SHADING GROUP 1 FACE 28
   ** Warning ** GetSurfaceData: Very small surface area[8.00000E-004], Surface=SHADING GROUP 1 FACE 29
   ** Warning ** GetSurfaceData: Very small surface area[8.00000E-004], Surface=Mir-SHADING GROUP 1 FACE 29
   ** Warning ** GetSurfaceData: Very small surface area[8.00000E-004], Surface=SHADING GROUP 1 FACE 30
   ** Warning ** GetSurfaceData: Very small surface area[8.00000E-004], Surface=Mir-SHADING GROUP 1 FACE 30
   ** Warning ** GetSurfaceData: Very small surface area[8.00000E-004], Surface=SHADING GROUP 1 FACE 33
   ** Warning ** GetSurfaceData: Very small surface area[8.00000E-004], Surface=Mir-SHADING GROUP 1 FACE 33
   ** Warning ** GetSurfaceData: Very small surface area[8.00000E-004], Surface=SHADING GROUP 1 FACE 34
   ** Warning ** GetSurfaceData: Very small surface area[8.00000E-004], Surface=Mir-SHADING GROUP 1 FACE 34
   ** Warning ** GetSurfaceData: Very small surface area[8.00000E-004], Surface=SHADING GROUP 1 FACE 35
   ** Warning ** GetSurfaceData: Very small surface area[8.00000E-004], Surface=Mir-SHADING GROUP 1 FACE 35
   ** Warning ** GetSurfaceData: Very small surface area[8.00000E-004], Surface=SHADING GROUP 1 FACE 36
   ** Warning ** GetSurfaceData: Very small surface area[8.00000E-004], Surface=Mir-SHADING GROUP 1 FACE 36
   ** Warning ** GetSurfaceData: Very small surface area[8.00000E-004], Surface=SHADING GROUP 1 FACE 39
   ** Warning ** GetSurfaceData: Very small surface area[8.00000E-004], Surface=Mir-SHADING GROUP 1 FACE 39
   ** Warning ** GetSurfaceData: Very small surface area[8.00000E-004], Surface=SHADING GROUP 1 FACE 40
   ** Warning ** GetSurfaceData: Very small surface area[8.00000E-004], Surface=Mir-SHADING GROUP 1 FACE 40
   ** Warning ** GetSurfaceData: Very small surface area[8.00000E-004], Surface=SHADING GROUP 1 FACE 41
   ** Warning ** GetSurfaceData: Very small surface area[8.00000E-004], Surface=Mir-SHADING GROUP 1 FACE 41
   ** Warning ** GetSurfaceData: Very small surface area[8.00000E-004], Surface=SHADING GROUP 1 FACE 42
   ** Warning ** GetSurfaceData: Very small surface area[8.00000E-004], Surface=Mir-SHADING GROUP 1 FACE 42
   ** Warning ** GetSurfaceData: Very small surface area[8.00000E-004], Surface=SHADING GROUP 1 FACE 45
   ** Warning ** GetSurfaceData: Very small surface area[8.00000E-004], Surface=Mir-SHADING GROUP 1 FACE 45
   ** Warning ** GetSurfaceData: Very small surface area[8.00000E-004], Surface=SHADING GROUP 1 FACE 46
   ** Warning ** GetSurfaceData: Very small surface area[8.00000E-004], Surface=Mir-SHADING GROUP 1 FACE 46
   ** Warning ** GetSurfaceData: Very small surface area[8.00000E-004], Surface=SHADING GROUP 1 FACE 47
   ** Warning ** GetSurfaceData: Very small surface area[8.00000E-004], Surface=Mir-SHADING GROUP 1 FACE 47
   ** Warning ** GetSurfaceData: Very small surface area[8.00000E-004], Surface=SHADING GROUP 1 FACE 48
   ** Warning ** GetSurfaceData: Very small surface area[8.00000E-004], Surface=Mir-SHADING GROUP 1 FACE 48
   ** Warning ** GetSurfaceData: Very small surface area[8.00000E-004], Surface=SHADING GROUP 1 FACE 51
   ** Warning ** GetSurfaceData: Very small surface area[8.00000E-004], Surface=Mir-SHADING GROUP 1 FACE 51
   ** Warning ** GetSurfaceData: Very small surface area[8.00000E-004], Surface=SHADING GROUP 1 FACE 52
   ** Warning ** GetSurfaceData: Very small surface area[8.00000E-004], Surface=Mir-SHADING GROUP 1 FACE 52
   ** Warning ** GetSurfaceData: Very small surface area[8.00000E-004], Surface=SHADING GROUP 1 FACE 53
   ** Warning ** GetSurfaceData: Very small surface area[8.00000E-004], Surface=Mir-SHADING GROUP 1 FACE 53
   ** Warning ** GetSurfaceData: Very small surface area[8.00000E-004], Surface=SHADING GROUP 1 FACE 54
   ** Warning ** GetSurfaceData: Very small surface area[8.00000E-004], Surface=Mir-SHADING GROUP 1 FACE 54
   ** Warning ** GetSurfaceData: Very small surface area[8.00000E-004], Surface=SHADING GROUP 1 FACE 57
   ** Warning ** GetSurfaceData: Very small surface area[8.00000E-004], Surface=Mir-SHADING GROUP 1 FACE 57
   ** Warning ** GetSurfaceData: Very small surface area[8.00000E-004], Surface=SHADING GROUP 1 FACE 58
   ** Warning ** GetSurfaceData: Very small surface area[8.00000E-004], Surface=Mir-SHADING GROUP 1 FACE 58
   ** Warning ** GetSurfaceData: Very small surface area[8.00000E-004], Surface=SHADING GROUP 1 FACE 59
   ** Warning ** GetSurfaceData: Very small surface area[8.00000E-004], Surface=Mir-SHADING GROUP 1 FACE 59
   ** Warning ** GetSurfaceData: Very small surface area[8.00000E-004], Surface=SHADING GROUP 1 FACE 60
   ** Warning ** GetSurfaceData: Very small surface area[8.00000E-004], Surface=Mir-SHADING GROUP 1 FACE 60
   ** Warning ** GetSurfaceData: Very small surface area[8.00000E-004], Surface=SHADING GROUP 1 FACE 63
   ** Warning ** GetSurfaceData: Very small surface area[8.00000E-004], Surface=Mir-SHADING GROUP 1 FACE 63
   ** Warning ** GetSurfaceData: Very small surface area[8.00000E-004], Surface=SHADING GROUP 1 FACE 64
   ** Warning ** GetSurfaceData: Very small surface area[8.00000E-004], Surface=Mir-SHADING GROUP 1 FACE 64
   ** Warning ** GetSurfaceData: Very small surface area[8.00000E-004], Surface=SHADING GROUP 1 FACE 65
   ** Warning ** GetSurfaceData: Very small surface area[8.00000E-004], Surface=Mir-SHADING GROUP 1 FACE 65
   ** Warning ** GetSurfaceData: Very small surface area[8.00000E-004], Surface=SHADING GROUP 1 FACE 66
   ** Warning ** GetSurfaceData: Very small surface area[8.00000E-004], Surface=Mir-SHADING GROUP 1 FACE 66
   ** Warning ** GetSurfaceData: Very small surface area[8.00000E-004], Surface=SHADING GROUP 1 FACE 69
   ** Warning ** GetSurfaceData: Very small surface area[8.00000E-004], Surface=Mir-SHADING GROUP 1 FACE 69
   ** Warning ** GetSurfaceData: Very small surface area[8.00000E-004], Surface=SHADING GROUP 1 FACE 70
   ** Warning ** GetSurfaceData: Very small surface area[8.00000E-004], Surface=Mir-SHADING GROUP 1 FACE 70
   ** Warning ** GetSurfaceData: Very small surface area[8.00000E-004], Surface=SHADING GROUP 1 FACE 71
   ** Warning ** GetSurfaceData: Very small surface area[8.00000E-004], Surface=Mir-SHADING GROUP 1 FACE 71
   ** Warning ** GetSurfaceData: Very small surface area[8.00000E-004], Surface=SHADING GROUP 1 FACE 72
   ** Warning ** GetSurfaceData: Very small surface area[8.00000E-004], Surface=Mir-SHADING GROUP 1 FACE 72
   ** Warning ** GetSurfaceData: Very small surface area[8.00000E-004], Surface=SHADING GROUP 1 FACE 75
   ** Warning ** GetSurfaceData: Very small surface area[8.00000E-004], Surface=Mir-SHADING GROUP 1 FACE 75
   ** Warning ** GetSurfaceData: Very small surface area[8.00000E-004], Surface=SHADING GROUP 1 FACE 76
   ** Warning ** GetSurfaceData: Very small surface area[8.00000E-004], Surface=Mir-SHADING GROUP 1 FACE 76
   ** Warning ** GetSurfaceData: Very small surface area[8.00000E-004], Surface=SHADING GROUP 1 FACE 77
   ** Warning ** GetSurfaceData: Very small surface area[8.00000E-004], Surface=Mir-SHADING GROUP 1 FACE 77
   ** Warning ** GetSurfaceData: Very small surface area[8.00000E-004], Surface=SHADING GROUP 1 FACE 78
   ** Warning ** GetSurfaceData: Very small surface area[8.00000E-004], Surface=Mir-SHADING GROUP 1 FACE 78
   ** Warning ** GetSurfaceData: Very small surface area[8.00000E-004], Surface=SHADING GROUP 1 FACE 81
   ** Warning ** GetSurfaceData: Very small surface area[8.00000E-004], Surface=Mir-SHADING GROUP 1 FACE 81
   ** Warning ** GetSurfaceData: Very small surface area[8.00000E-004], Surface=SHADING GROUP 1 FACE 82
   ** Warning ** GetSurfaceData: Very small surface area[8.00000E-004], Surface=Mir-SHADING GROUP 1 FACE 82
   ** Warning ** GetSurfaceData: Very small surface area[8.00000E-004], Surface=SHADING GROUP 1 FACE 83
   ** Warning ** GetSurfaceData: Very small surface area[8.00000E-004], Surface=Mir-SHADING GROUP 1 FACE 83
   ** Warning ** GetSurfaceData: Very small surface area[8.00000E-004], Surface=SHADING GROUP 1 FACE 84
   ** Warning ** GetSurfaceData: Very small surface area[8.00000E-004], Surface=Mir-SHADING GROUP 1 FACE 84
   ** Warning ** GetSurfaceData: Very small surface area[8.00000E-004], Surface=SHADING GROUP 1 FACE 87
   ** Warning ** GetSurfaceData: Very small surface area[8.00000E-004], Surface=Mir-SHADING GROUP 1 FACE 87
   ** Warning ** GetSurfaceData: Very small surface area[8.00000E-004], Surface=SHADING GROUP 1 FACE 88
   ** Warning ** GetSurfaceData: Very small surface area[8.00000E-004], Surface=Mir-SHADING GROUP 1 FACE 88
   ** Warning ** GetSurfaceData: Very small surface area[8.00000E-004], Surface=SHADING GROUP 1 FACE 89
   ** Warning ** GetSurfaceData: Very small surface area[8.00000E-004], Surface=Mir-SHADING GROUP 1 FACE 89
   ** Warning ** GetSurfaceData: Very small surface area[8.00000E-004], Surface=SHADING GROUP 1 FACE 90
   ** Warning ** GetSurfaceData: Very small surface area[8.00000E-004], Surface=Mir-SHADING GROUP 1 FACE 90
   ** Warning ** GetSurfaceData: Very small surface area[8.00000E-004], Surface=SHADING GROUP 1 FACE 93
   ** Warning ** GetSurfaceData: Very small surface area[8.00000E-004], Surface=Mir-SHADING GROUP 1 FACE 93
   ** Warning ** GetSurfaceData: Very small surface area[8.00000E-004], Surface=SHADING GROUP 1 FACE 94
   ** Warning ** GetSurfaceData: Very small surface area[8.00000E-004], Surface=Mir-SHADING GROUP 1 FACE 94
   ** Warning ** GetSurfaceData: Very small surface area[8.00000E-004], Surface=SHADING GROUP 1 FACE 95
   ** Warning ** GetSurfaceData: Very small surface area[8.00000E-004], Surface=Mir-SHADING GROUP 1 FACE 95
   ** Warning ** GetSurfaceData: Very small surface area[8.00000E-004], Surface=SHADING GROUP 1 FACE 96
   ** Warning ** GetSurfaceData: Very small surface area[8.00000E-004], Surface=Mir-SHADING GROUP 1 FACE 96
   ** Warning ** GetSurfaceData: Very small surface area[8.00000E-004], Surface=SHADING GROUP 1 FACE 99
   ** Warning ** GetSurfaceData: Very small surface area[8.00000E-004], Surface=Mir-SHADING GROUP 1 FACE 99
   ** Warning ** GetSurfaceData: Very small surface area[8.00000E-004], Surface=SHADING GROUP 1 FACE 100
   ** Warning ** GetSurfaceData: Very small surface area[8.00000E-004], Surface=Mir-SHADING GROUP 1 FACE 100
   ** Warning ** GetSurfaceData: Very small surface area[8.00000E-004], Surface=SHADING GROUP 1 FACE 101
   ** Warning ** GetSurfaceData: Very small surface area[8.00000E-004], Surface=Mir-SHADING GROUP 1 FACE 101
   ** Warning ** GetSurfaceData: Very small surface area[8.00000E-004], Surface=SHADING GROUP 1 FACE 102
   ** Warning ** GetSurfaceData: Very small surface area[8.00000E-004], Surface=Mir-SHADING GROUP 1 FACE 102
   ** Warning ** GetSurfaceData: Very small surface area[8.00000E-004], Surface=SHADING GROUP 1 FACE 105
   ** Warning ** GetSurfaceData: Very small surface area[8.00000E-004], Surface=Mir-SHADING GROUP 1 FACE 105
   ** Warning ** GetSurfaceData: Very small surface area[8.00000E-004], Surface=SHADING GROUP 1 FACE 106
   ** Warning ** GetSurfaceData: Very small surface area[8.00000E-004], Surface=Mir-SHADING GROUP 1 FACE 106
   ** Warning ** GetSurfaceData: Very small surface area[8.00000E-004], Surface=SHADING GROUP 1 FACE 107
   ** Warning ** GetSurfaceData: Very small surface area[8.00000E-004], Surface=Mir-SHADING GROUP 1 FACE 107
   ** Warning ** GetSurfaceData: Very small surface area[8.00000E-004], Surface=SHADING GROUP 1 FACE 108
   ** Warning ** GetSurfaceData: Very small surface area[8.00000E-004], Surface=Mir-SHADING GROUP 1 FACE 108
   ** Warning ** GetSurfaceData: Very small surface area[8.00000E-004], Surface=SHADING GROUP 1 FACE 111
   ** Warning ** GetSurfaceData: Very small surface area[8.00000E-004], Surface=Mir-SHADING GROUP 1 FACE 111
   ** Warning ** GetSurfaceData: Very small surface area[8.00000E-004], Surface=SHADING GROUP 1 FACE 112
   ** Warning ** GetSurfaceData: Very small surface area[8.00000E-004], Surface=Mir-SHADING GROUP 1 FACE 112
   ** Warning ** GetSurfaceData: Very small surface area[8.00000E-004], Surface=SHADING GROUP 1 FACE 113
   ** Warning ** GetSurfaceData: Very small surface area[8.00000E-004], Surface=Mir-SHADING GROUP 1 FACE 113
   ** Warning ** GetSurfaceData: Very small surface area[8.00000E-004], Surface=SHADING GROUP 1 FACE 114
   ** Warning ** GetSurfaceData: Very small surface area[8.00000E-004], Surface=Mir-SHADING GROUP 1 FACE 114
   ** Warning ** GetSurfaceData: Very small surface area[8.00000E-004], Surface=SHADING GROUP 1 FACE 117
   ** Warning ** GetSurfaceData: Very small surface area[8.00000E-004], Surface=Mir-SHADING GROUP 1 FACE 117
   ** Warning ** GetSurfaceData: Very small surface area[8.00000E-004], Surface=SHADING GROUP 1 FACE 118
   ** Warning ** GetSurfaceData: Very small surface area[8.00000E-004], Surface=Mir-SHADING GROUP 1 FACE 118
   ** Warning ** GetSurfaceData: Very small surface area[8.00000E-004], Surface=SHADING GROUP 1 FACE 119
   ** Warning ** GetSurfaceData: Very small surface area[8.00000E-004], Surface=Mir-SHADING GROUP 1 FACE 119
   ** Warning ** GetSurfaceData: Very small surface area[8.00000E-004], Surface=SHADING GROUP 1 FACE 120
   ** Warning ** GetSurfaceData: Very small surface area[8.00000E-004], Surface=Mir-SHADING GROUP 1 FACE 120
   ** Warning ** GetSurfaceData: Very small surface area[8.00000E-004], Surface=SHADING GROUP 1 FACE 123
   ** Warning ** GetSurfaceData: Very small surface area[8.00000E-004], Surface=Mir-SHADING GROUP 1 FACE 123
   ** Warning ** GetSurfaceData: Very small surface area[8.00000E-004], Surface=SHADING GROUP 1 FACE 124
   ** Warning ** GetSurfaceData: Very small surface area[8.00000E-004], Surface=Mir-SHADING GROUP 1 FACE 124
   ** Warning ** GetSurfaceData: Very small surface area[8.00000E-004], Surface=SHADING GROUP 1 FACE 125
   ** Warning ** GetSurfaceData: Very small surface area[8.00000E-004], Surface=Mir-SHADING GROUP 1 FACE 125
   ** Warning ** GetSurfaceData: Very small surface area[8.00000E-004], Surface=SHADING GROUP 1 FACE 126
   ** Warning ** GetSurfaceData: Very small surface area[8.00000E-004], Surface=Mir-SHADING GROUP 1 FACE 126
   ** Warning ** GetSurfaceData: Very small surface area[8.00000E-004], Surface=SHADING GROUP 1 FACE 129
   ** Warning ** GetSurfaceData: Very small surface area[8.00000E-004], Surface=Mir-SHADING GROUP 1 FACE 129
   ** Warning ** GetSurfaceData: Very small surface area[8.00000E-004], Surface=SHADING GROUP 1 FACE 130
   ** Warning ** GetSurfaceData: Very small surface area[8.00000E-004], Surface=Mir-SHADING GROUP 1 FACE 130
   ** Warning ** GetSurfaceData: Very small surface area[8.00000E-004], Surface=SHADING GROUP 1 FACE 131
   ** Warning ** GetSurfaceData: Very small surface area[8.00000E-004], Surface=Mir-SHADING GROUP 1 FACE 131
   ** Warning ** GetSurfaceData: Very small surface area[8.00000E-004], Surface=SHADING GROUP 1 FACE 132
   ** Warning ** GetSurfaceData: Very small surface area[8.00000E-004], Surface=Mir-SHADING GROUP 1 FACE 132
   ** Warning ** GetSurfaceData: Very small surface area[8.00000E-004], Surface=SHADING GROUP 1 FACE 135
   ** Warning ** GetSurfaceData: Very small surface area[8.00000E-004], Surface=Mir-SHADING GROUP 1 FACE 135
   ** Warning ** GetSurfaceData: Very small surface area[8.00000E-004], Surface=SHADING GROUP 1 FACE 136
   ** Warning ** GetSurfaceData: Very small surface area[8.00000E-004], Surface=Mir-SHADING GROUP 1 FACE 136
   ** Warning ** GetSurfaceData: Very small surface area[8.00000E-004], Surface=SHADING GROUP 1 FACE 137
   ** Warning ** GetSurfaceData: Very small surface area[8.00000E-004], Surface=Mir-SHADING GROUP 1 FACE 137
   ** Warning ** GetSurfaceData: Very small surface area[8.00000E-004], Surface=SHADING GROUP 1 FACE 138
   ** Warning ** GetSurfaceData: Very small surface area[8.00000E-004], Surface=Mir-SHADING GROUP 1 FACE 138
   ** Warning ** GetSurfaceData: Very small surface area[8.00000E-004], Surface=SHADING GROUP 1 FACE 141
   ** Warning ** GetSurfaceData: Very small surface area[8.00000E-004], Surface=Mir-SHADING GROUP 1 FACE 141
   ** Warning ** GetSurfaceData: Very small surface area[8.00000E-004], Surface=SHADING GROUP 1 FACE 142
   ** Warning ** GetSurfaceData: Very small surface area[8.00000E-004], Surface=Mir-SHADING GROUP 1 FACE 142
   ** Warning ** GetSurfaceData: Very small surface area[8.00000E-004], Surface=SHADING GROUP 1 FACE 143
   ** Warning ** GetSurfaceData: Very small surface area[8.00000E-004], Surface=Mir-SHADING GROUP 1 FACE 143
   ** Warning ** GetSurfaceData: Very small surface area[8.00000E-004], Surface=SHADING GROUP 1 FACE 144
   ** Warning ** GetSurfaceData: Very small surface area[8.00000E-004], Surface=Mir-SHADING GROUP 1 FACE 144
   ** Warning ** GetSurfaceData: Very small surface area[8.00000E-004], Surface=SHADING GROUP 1 FACE 147
   ** Warning ** GetSurfaceData: Very small surface area[8.00000E-004], Surface=Mir-SHADING GROUP 1 FACE 147
   ** Warning ** GetSurfaceData: Very small surface area[8.00000E-004], Surface=SHADING GROUP 1 FACE 148
   ** Warning ** GetSurfaceData: Very small surface area[8.00000E-004], Surface=Mir-SHADING GROUP 1 FACE 148
   ** Warning ** GetSurfaceData: Very small surface area[8.00000E-004], Surface=SHADING GROUP 1 FACE 149
   ** Warning ** GetSurfaceData: Very small surface area[8.00000E-004], Surface=Mir-SHADING GROUP 1 FACE 149
   ** Warning ** GetSurfaceData: Very small surface area[8.00000E-004], Surface=SHADING GROUP 1 FACE 150
   ** Warning ** GetSurfaceData: Very small surface area[8.00000E-004], Surface=Mir-SHADING GROUP 1 FACE 150
   ** Warning ** GetSurfaceData: Very small surface area[8.00000E-004], Surface=SHADING GROUP 1 FACE 153
   ** Warning ** GetSurfaceData: Very small surface area[8.00000E-004], Surface=Mir-SHADING GROUP 1 FACE 153
   ** Warning ** GetSurfaceData: Very small surface area[8.00000E-004], Surface=SHADING GROUP 1 FACE 154
   ** Warning ** GetSurfaceData: Very small surface area[8.00000E-004], Surface=Mir-SHADING GROUP 1 FACE 154
   ** Warning ** GetSurfaceData: Very small surface area[8.00000E-004], Surface=SHADING GROUP 1 FACE 155
   ** Warning ** GetSurfaceData: Very small surface area[8.00000E-004], Surface=Mir-SHADING GROUP 1 FACE 155
   ** Warning ** GetSurfaceData: Very small surface area[8.00000E-004], Surface=SHADING GROUP 1 FACE 156
   ** Warning ** GetSurfaceData: Very small surface area[8.00000E-004], Surface=Mir-SHADING GROUP 1 FACE 156
   ** Warning ** GetSurfaceData: Very small surface area[8.00000E-004], Surface=SHADING GROUP 1 FACE 159
   ** Warning ** GetSurfaceData: Very small surface area[8.00000E-004], Surface=Mir-SHADING GROUP 1 FACE 159
   ** Warning ** GetSurfaceData: Very small surface area[8.00000E-004], Surface=SHADING GROUP 1 FACE 160
   ** Warning ** GetSurfaceData: Very small surface area[8.00000E-004], Surface=Mir-SHADING GROUP 1 FACE 160
   ** Warning ** GetSurfaceData: Very small surface area[8.00000E-004], Surface=SHADING GROUP 1 FACE 161
   ** Warning ** GetSurfaceData: Very small surface area[8.00000E-004], Surface=Mir-SHADING GROUP 1 FACE 161
   ** Warning ** GetSurfaceData: Very small surface area[8.00000E-004], Surface=SHADING GROUP 1 FACE 162
   ** Warning ** GetSurfaceData: Very small surface area[8.00000E-004], Surface=Mir-SHADING GROUP 1 FACE 162
   ** Warning ** GetSurfaceData: Very small surface area[8.00000E-004], Surface=SHADING GROUP 1 FACE 165
   ** Warning ** GetSurfaceData: Very small surface area[8.00000E-004], Surface=Mir-SHADING GROUP 1 FACE 165
   ** Warning ** GetSurfaceData: Very small surface area[8.00000E-004], Surface=SHADING GROUP 1 FACE 166
   ** Warning ** GetSurfaceData: Very small surface area[8.00000E-004], Surface=Mir-SHADING GROUP 1 FACE 166
   ** Warning ** GetSurfaceData: Very small surface area[8.00000E-004], Surface=SHADING GROUP 1 FACE 167
   ** Warning ** GetSurfaceData: Very small surface area[8.00000E-004], Surface=Mir-SHADING GROUP 1 FACE 167
   ** Warning ** GetSurfaceData: Very small surface area[8.00000E-004], Surface=SHADING GROUP 1 FACE 168
   ** Warning ** GetSurfaceData: Very small surface area[8.00000E-004], Surface=Mir-SHADING GROUP 1 FACE 168
   ** Warning ** GetSurfaceData: Very small surface area[8.00000E-004], Surface=SHADING GROUP 1 FACE 171
   ** Warning ** GetSurfaceData: Very small surface area[8.00000E-004], Surface=Mir-SHADING GROUP 1 FACE 171
   ** Warning ** GetSurfaceData: Very small surface area[8.00000E-004], Surface=SHADING GROUP 1 FACE 172
   ** Warning ** GetSurfaceData: Very small surface area[8.00000E-004], Surface=Mir-SHADING GROUP 1 FACE 172
   ** Warning ** GetSurfaceData: Very small surface area[8.00000E-004], Surface=SHADING GROUP 1 FACE 173
   ** Warning ** GetSurfaceData: Very small surface area[8.00000E-004], Surface=Mir-SHADING GROUP 1 FACE 173
   ** Warning ** GetSurfaceData: Very small surface area[8.00000E-004], Surface=SHADING GROUP 1 FACE 174
   ** Warning ** GetSurfaceData: Very small surface area[8.00000E-004], Surface=Mir-SHADING GROUP 1 FACE 174
   ** Warning ** GetSurfaceData: Very small surface area[8.00000E-004], Surface=SHADING GROUP 1 FACE 177
   ** Warning ** GetSurfaceData: Very small surface area[8.00000E-004], Surface=Mir-SHADING GROUP 1 FACE 177
   ** Warning ** GetSurfaceData: Very small surface area[8.00000E-004], Surface=SHADING GROUP 1 FACE 178
   ** Warning ** GetSurfaceData: Very small surface area[8.00000E-004], Surface=Mir-SHADING GROUP 1 FACE 178
   ** Warning ** GetSurfaceData: Very small surface area[8.00000E-004], Surface=SHADING GROUP 1 FACE 179
   ** Warning ** GetSurfaceData: Very small surface area[8.00000E-004], Surface=Mir-SHADING GROUP 1 FACE 179
   ** Warning ** GetSurfaceData: Very small surface area[8.00000E-004], Surface=SHADING GROUP 1 FACE 180
   ** Warning ** GetSurfaceData: Very small surface area[8.00000E-004], Surface=Mir-SHADING GROUP 1 FACE 180
   ** Warning ** GetSurfaceData: Very small surface area[8.00000E-004], Surface=SHADING GROUP 1 FACE 183
   ** Warning ** GetSurfaceData: Very small surface area[8.00000E-004], Surface=Mir-SHADING GROUP 1 FACE 183
   ** Warning ** GetSurfaceData: Very small surface area[8.00000E-004], Surface=SHADING GROUP 1 FACE 184
   ** Warning ** GetSurfaceData: Very small surface area[8.00000E-004], Surface=Mir-SHADING GROUP 1 FACE 184
   ** Warning ** GetSurfaceData: Very small surface area[8.00000E-004], Surface=SHADING GROUP 1 FACE 185
   ** Warning ** GetSurfaceData: Very small surface area[8.00000E-004], Surface=Mir-SHADING GROUP 1 FACE 185
   ** Warning ** GetSurfaceData: Very small surface area[8.00000E-004], Surface=SHADING GROUP 1 FACE 186
   ** Warning ** GetSurfaceData: Very small surface area[8.00000E-004], Surface=Mir-SHADING GROUP 1 FACE 186
   ** Warning ** GetSurfaceData: Very small surface area[8.00000E-004], Surface=SHADING GROUP 1 FACE 189
   ** Warning ** GetSurfaceData: Very small surface area[8.00000E-004], Surface=Mir-SHADING GROUP 1 FACE 189
   ** Warning ** GetSurfaceData: Very small surface area[8.00000E-004], Surface=SHADING GROUP 1 FACE 190
   ** Warning ** GetSurfaceData: Very small surface area[8.00000E-004], Surface=Mir-SHADING GROUP 1 FACE 190
   ** Warning ** GetSurfaceData: Very small surface area[8.00000E-004], Surface=SHADING GROUP 1 FACE 191
   ** Warning ** GetSurfaceData: Very small surface area[8.00000E-004], Surface=Mir-SHADING GROUP 1 FACE 191
   ** Warning ** GetSurfaceData: Very small surface area[8.00000E-004], Surface=SHADING GROUP 1 FACE 192
   ** Warning ** GetSurfaceData: Very small surface area[8.00000E-004], Surface=Mir-SHADING GROUP 1 FACE 192
   ** Warning ** GetSurfaceData: Very small surface area[8.00000E-004], Surface=SHADING GROUP 1 FACE 195
   ** Warning ** GetSurfaceData: Very small surface area[8.00000E-004], Surface=Mir-SHADING GROUP 1 FACE 195
   ** Warning ** GetSurfaceData: Very small surface area[8.00000E-004], Surface=SHADING GROUP 1 FACE 196
   ** Warning ** GetSurfaceData: Very small surface area[8.00000E-004], Surface=Mir-SHADING GROUP 1 FACE 196
   ** Warning ** GetSurfaceData: Very small surface area[8.00000E-004], Surface=SHADING GROUP 1 FACE 197
   ** Warning ** GetSurfaceData: Very small surface area[8.00000E-004], Surface=Mir-SHADING GROUP 1 FACE 197
   ** Warning ** GetSurfaceData: Very small surface area[8.00000E-004], Surface=SHADING GROUP 1 FACE 198
   ** Warning ** GetSurfaceData: Very small surface area[8.00000E-004], Surface=Mir-SHADING GROUP 1 FACE 198
   ** Warning ** GetSurfaceData: Very small surface area[8.00000E-004], Surface=SHADING GROUP 1 FACE 201
   ** Warning ** GetSurfaceData: Very small surface area[8.00000E-004], Surface=Mir-SHADING GROUP 1 FACE 201
   ** Warning ** GetSurfaceData: Very small surface area[8.00000E-004], Surface=SHADING GROUP 1 FACE 202
   ** Warning ** GetSurfaceData: Very small surface area[8.00000E-004], Surface=Mir-SHADING GROUP 1 FACE 202
   ** Warning ** GetSurfaceData: Very small surface area[8.00000E-004], Surface=SHADING GROUP 1 FACE 203
   ** Warning ** GetSurfaceData: Very small surface area[8.00000E-004], Surface=Mir-SHADING GROUP 1 FACE 203
   ** Warning ** GetSurfaceData: Very small surface area[8.00000E-004], Surface=SHADING GROUP 1 FACE 204
   ** Warning ** GetSurfaceData: Very small surface area[8.00000E-004], Surface=Mir-SHADING GROUP 1 FACE 204
   ** Warning ** GetSurfaceData: Very small surface area[8.00000E-004], Surface=SHADING GROUP 1 FACE 207
   ** Warning ** GetSurfaceData: Very small surface area[8.00000E-004], Surface=Mir-SHADING GROUP 1 FACE 207
   ** Warning ** GetSurfaceData: Very small surface area[8.00000E-004], Surface=SHADING GROUP 1 FACE 208
   ** Warning ** GetSurfaceData: Very small surface area[8.00000E-004], Surface=Mir-SHADING GROUP 1 FACE 208
   ** Warning ** GetSurfaceData: Very small surface area[8.00000E-004], Surface=SHADING GROUP 1 FACE 209
   ** Warning ** GetSurfaceData: Very small surface area[8.00000E-004], Surface=Mir-SHADING GROUP 1 FACE 209
   ** Warning ** GetSurfaceData: Very small surface area[8.00000E-004], Surface=SHADING GROUP 1 FACE 210
   ** Warning ** GetSurfaceData: Very small surface area[8.00000E-004], Surface=Mir-SHADING GROUP 1 FACE 210
   ** Warning ** GetSurfaceData: Very small surface area[8.00000E-004], Surface=SHADING GROUP 1 FACE 213
   ** Warning ** GetSurfaceData: Very small surface area[8.00000E-004], Surface=Mir-SHADING GROUP 1 FACE 213
   ** Warning ** GetSurfaceData: Very small surface area[8.00000E-004], Surface=SHADING GROUP 1 FACE 214
   ** Warning ** GetSurfaceData: Very small surface area[8.00000E-004], Surface=Mir-SHADING GROUP 1 FACE 214
   ** Warning ** GetSurfaceData: Very small surface area[8.00000E-004], Surface=SHADING GROUP 1 FACE 215
   ** Warning ** GetSurfaceData: Very small surface area[8.00000E-004], Surface=Mir-SHADING GROUP 1 FACE 215
   ** Warning ** GetSurfaceData: Very small surface area[8.00000E-004], Surface=SHADING GROUP 1 FACE 216
   ** Warning ** GetSurfaceData: Very small surface area[8.00000E-004], Surface=Mir-SHADING GROUP 1 FACE 216
   ** Warning ** GetSurfaceData: Very small surface area[8.00000E-004], Surface=SHADING GROUP 1 FACE 219
   ** Warning ** GetSurfaceData: Very small surface area[8.00000E-004], Surface=Mir-SHADING GROUP 1 FACE 219
   ** Warning ** GetSurfaceData: Very small surface area[8.00000E-004], Surface=SHADING GROUP 1 FACE 220
   ** Warning ** GetSurfaceData: Very small surface area[8.00000E-004], Surface=Mir-SHADING GROUP 1 FACE 220
   ** Warning ** GetSurfaceData: Very small surface area[8.00000E-004], Surface=SHADING GROUP 1 FACE 221
   ** Warning ** GetSurfaceData: Very small surface area[8.00000E-004], Surface=Mir-SHADING GROUP 1 FACE 221
   ** Warning ** GetSurfaceData: Very small surface area[8.00000E-004], Surface=SHADING GROUP 1 FACE 222
   ** Warning ** GetSurfaceData: Very small surface area[8.00000E-004], Surface=Mir-SHADING GROUP 1 FACE 222
   ** Warning ** GetSurfaceData: Very small surface area[8.00000E-004], Surface=SHADING GROUP 1 FACE 225
   ** Warning ** GetSurfaceData: Very small surface area[8.00000E-004], Surface=Mir-SHADING GROUP 1 FACE 225
   ** Warning ** GetSurfaceData: Very small surface area[8.00000E-004], Surface=SHADING GROUP 1 FACE 226
   ** Warning ** GetSurfaceData: Very small surface area[8.00000E-004], Surface=Mir-SHADING GROUP 1 FACE 226
   ** Warning ** GetSurfaceData: Very small surface area[8.00000E-004], Surface=SHADING GROUP 1 FACE 227
   ** Warning ** GetSurfaceData: Very small surface area[8.00000E-004], Surface=Mir-SHADING GROUP 1 FACE 227
   ** Warning ** GetSurfaceData: Very small surface area[8.00000E-004], Surface=SHADING GROUP 1 FACE 228
   ** Warning ** GetSurfaceData: Very small surface area[8.00000E-004], Surface=Mir-SHADING GROUP 1 FACE 228
   ** Warning ** GetSurfaceData: Very small surface area[8.00000E-004], Surface=SHADING GROUP 1 FACE 231
   ** Warning ** GetSurfaceData: Very small surface area[8.00000E-004], Surface=Mir-SHADING GROUP 1 FACE 231
   ** Warning ** GetSurfaceData: Very small surface area[8.00000E-004], Surface=SHADING GROUP 1 FACE 232
   ** Warning ** GetSurfaceData: Very small surface area[8.00000E-004], Surface=Mir-SHADING GROUP 1 FACE 232
   ** Warning ** GetSurfaceData: Very small surface area[8.00000E-004], Surface=SHADING GROUP 1 FACE 233
   ** Warning ** GetSurfaceData: Very small surface area[8.00000E-004], Surface=Mir-SHADING GROUP 1 FACE 233
   ** Warning ** GetSurfaceData: Very small surface area[8.00000E-004], Surface=SHADING GROUP 1 FACE 234
   ** Warning ** GetSurfaceData: Very small surface area[8.00000E-004], Surface=Mir-SHADING GROUP 1 FACE 234
   ** Warning ** GetSurfaceData: Very small surface area[8.00000E-004], Surface=SHADING GROUP 1 FACE 237
   ** Warning ** GetSurfaceData: Very small surface area[8.00000E-004], Surface=Mir-SHADING GROUP 1 FACE 237
   ** Warning ** GetSurfaceData: Very small surface area[8.00000E-004], Surface=SHADING GROUP 1 FACE 238
   ** Warning ** GetSurfaceData: Very small surface area[8.00000E-004], Surface=Mir-SHADING GROUP 1 FACE 238
   ** Warning ** GetSurfaceData: Very small surface area[8.00000E-004], Surface=SHADING GROUP 1 FACE 239
   ** Warning ** GetSurfaceData: Very small surface area[8.00000E-004], Surface=Mir-SHADING GROUP 1 FACE 239
   ** Warning ** GetSurfaceData: Very small surface area[8.00000E-004], Surface=SHADING GROUP 1 FACE 240
   ** Warning ** GetSurfaceData: Very small surface area[8.00000E-004], Surface=Mir-SHADING GROUP 1 FACE 240
   ** Warning ** GetSurfaceData: Very small surface area[8.00000E-004], Surface=SHADING GROUP 1 FACE 243
   ** Warning ** GetSurfaceData: Very small surface area[8.00000E-004], Surface=Mir-SHADING GROUP 1 FACE 243
   ** Warning ** GetSurfaceData: Very small surface area[8.00000E-004], Surface=SHADING GROUP 1 FACE 244
   ** Warning ** GetSurfaceData: Very small surface area[8.00000E-004], Surface=Mir-SHADING GROUP 1 FACE 244
   ** Warning ** GetSurfaceData: Very small surface area[8.00000E-004], Surface=SHADING GROUP 1 FACE 245
   ** Warning ** GetSurfaceData: Very small surface area[8.00000E-004], Surface=Mir-SHADING GROUP 1 FACE 245
   ** Warning ** GetSurfaceData: Very small surface area[8.00000E-004], Surface=SHADING GROUP 1 FACE 246
   ** Warning ** GetSurfaceData: Very small surface area[8.00000E-004], Surface=Mir-SHADING GROUP 1 FACE 246
   ** Warning ** GetSurfaceData: Very small surface area[8.00000E-004], Surface=SHADING GROUP 1 FACE 249
   ** Warning ** GetSurfaceData: Very small surface area[8.00000E-004], Surface=Mir-SHADING GROUP 1 FACE 249
   ** Warning ** GetSurfaceData: Very small surface area[8.00000E-004], Surface=SHADING GROUP 1 FACE 250
   ** Warning ** GetSurfaceData: Very small surface area[8.00000E-004], Surface=Mir-SHADING GROUP 1 FACE 250
   ** Warning ** GetSurfaceData: Very small surface area[8.00000E-004], Surface=SHADING GROUP 1 FACE 251
   ** Warning ** GetSurfaceData: Very small surface area[8.00000E-004], Surface=Mir-SHADING GROUP 1 FACE 251
   ** Warning ** GetSurfaceData: Very small surface area[8.00000E-004], Surface=SHADING GROUP 1 FACE 252
   ** Warning ** GetSurfaceData: Very small surface area[8.00000E-004], Surface=Mir-SHADING GROUP 1 FACE 252
   ** Warning ** GetSurfaceData: Very small surface area[8.00000E-004], Surface=SHADING GROUP 1 FACE 255
   ** Warning ** GetSurfaceData: Very small surface area[8.00000E-004], Surface=Mir-SHADING GROUP 1 FACE 255
   ** Warning ** GetSurfaceData: Very small surface area[8.00000E-004], Surface=SHADING GROUP 1 FACE 256
   ** Warning ** GetSurfaceData: Very small surface area[8.00000E-004], Surface=Mir-SHADING GROUP 1 FACE 256
   ** Warning ** GetSurfaceData: Very small surface area[8.00000E-004], Surface=SHADING GROUP 1 FACE 257
   ** Warning ** GetSurfaceData: Very small surface area[8.00000E-004], Surface=Mir-SHADING GROUP 1 FACE 257
   ** Warning ** GetSurfaceData: Very small surface area[8.00000E-004], Surface=SHADING GROUP 1 FACE 258
   ** Warning ** GetSurfaceData: Very small surface area[8.00000E-004], Surface=Mir-SHADING GROUP 1 FACE 258
   ** Warning ** GetSurfaceData: Very small surface area[8.00000E-004], Surface=SHADING GROUP 1 FACE 261
   ** Warning ** GetSurfaceData: Very small surface area[8.00000E-004], Surface=Mir-SHADING GROUP 1 FACE 261
   ** Warning ** GetSurfaceData: Very small surface area[8.00000E-004], Surface=SHADING GROUP 1 FACE 262
   ** Warning ** GetSurfaceData: Very small surface area[8.00000E-004], Surface=Mir-SHADING GROUP 1 FACE 262
   ** Warning ** GetSurfaceData: Very small surface area[8.00000E-004], Surface=SHADING GROUP 1 FACE 263
   ** Warning ** GetSurfaceData: Very small surface area[8.00000E-004], Surface=Mir-SHADING GROUP 1 FACE 263
   ** Warning ** GetSurfaceData: Very small surface area[8.00000E-004], Surface=SHADING GROUP 1 FACE 264
   ** Warning ** GetSurfaceData: Very small surface area[8.00000E-004], Surface=Mir-SHADING GROUP 1 FACE 264
   ** Warning ** GetSurfaceData: Very small surface area[8.00000E-004], Surface=SHADING GROUP 1 FACE 267
   ** Warning ** GetSurfaceData: Very small surface area[8.00000E-004], Surface=Mir-SHADING GROUP 1 FACE 267
   ** Warning ** GetSurfaceData: Very small surface area[8.00000E-004], Surface=SHADING GROUP 1 FACE 268
   ** Warning ** GetSurfaceData: Very small surface area[8.00000E-004], Surface=Mir-SHADING GROUP 1 FACE 268
   ** Warning ** GetSurfaceData: Very small surface area[8.00000E-004], Surface=SHADING GROUP 1 FACE 269
   ** Warning ** GetSurfaceData: Very small surface area[8.00000E-004], Surface=Mir-SHADING GROUP 1 FACE 269
   ** Warning ** GetSurfaceData: Very small surface area[8.00000E-004], Surface=SHADING GROUP 1 FACE 270
   ** Warning ** GetSurfaceData: Very small surface area[8.00000E-004], Surface=Mir-SHADING GROUP 1 FACE 270
   ** Warning ** GetSurfaceData: Very small surface area[8.00000E-004], Surface=SHADING GROUP 1 FACE 273
   ** Warning ** GetSurfaceData: Very small surface area[8.00000E-004], Surface=Mir-SHADING GROUP 1 FACE 273
   ** Warning ** GetSurfaceData: Very small surface area[8.00000E-004], Surface=SHADING GROUP 1 FACE 274
   ** Warning ** GetSurfaceData: Very small surface area[8.00000E-004], Surface=Mir-SHADING GROUP 1 FACE 274
   ** Warning ** GetSurfaceData: Very small surface area[8.00000E-004], Surface=SHADING GROUP 1 FACE 275
   ** Warning ** GetSurfaceData: Very small surface area[8.00000E-004], Surface=Mir-SHADING GROUP 1 FACE 275
   ** Warning ** GetSurfaceData: Very small surface area[8.00000E-004], Surface=SHADING GROUP 1 FACE 276
   ** Warning ** GetSurfaceData: Very small surface area[8.00000E-004], Surface=Mir-SHADING GROUP 1 FACE 276
   ** Warning ** GetSurfaceData: Very small surface area[8.00000E-004], Surface=SHADING GROUP 1 FACE 279
   ** Warning ** GetSurfaceData: Very small surface area[8.00000E-004], Surface=Mir-SHADING GROUP 1 FACE 279
   ** Warning ** GetSurfaceData: Very small surface area[8.00000E-004], Surface=SHADING GROUP 1 FACE 280
   ** Warning ** GetSurfaceData: Very small surface area[8.00000E-004], Surface=Mir-SHADING GROUP 1 FACE 280
   ** Warning ** GetSurfaceData: Very small surface area[8.00000E-004], Surface=SHADING GROUP 1 FACE 281
   ** Warning ** GetSurfaceData: Very small surface area[8.00000E-004], Surface=Mir-SHADING GROUP 1 FACE 281
   ** Warning ** GetSurfaceData: Very small surface area[8.00000E-004], Surface=SHADING GROUP 1 FACE 282
   ** Warning ** GetSurfaceData: Very small surface area[8.00000E-004], Surface=Mir-SHADING GROUP 1 FACE 282
   ** Warning ** GetSurfaceData: Very small surface area[8.00000E-004], Surface=SHADING GROUP 1 FACE 285
   ** Warning ** GetSurfaceData: Very small surface area[8.00000E-004], Surface=Mir-SHADING GROUP 1 FACE 285
   ** Warning ** GetSurfaceData: Very small surface area[8.00000E-004], Surface=SHADING GROUP 1 FACE 286
   ** Warning ** GetSurfaceData: Very small surface area[8.00000E-004], Surface=Mir-SHADING GROUP 1 FACE 286
   ** Warning ** GetSurfaceData: Very small surface area[8.00000E-004], Surface=SHADING GROUP 1 FACE 287
   ** Warning ** GetSurfaceData: Very small surface area[8.00000E-004], Surface=Mir-SHADING GROUP 1 FACE 287
   ** Warning ** GetSurfaceData: Very small surface area[8.00000E-004], Surface=SHADING GROUP 1 FACE 288
   ** Warning ** GetSurfaceData: Very small surface area[8.00000E-004], Surface=Mir-SHADING GROUP 1 FACE 288
   ** Warning ** GetSurfaceData: Very small surface area[8.00000E-004], Surface=SHADING GROUP 1 FACE 291
   ** Warning ** GetSurfaceData: Very small surface area[8.00000E-004], Surface=Mir-SHADING GROUP 1 FACE 291
   ** Warning ** GetSurfaceData: Very small surface area[8.00000E-004], Surface=SHADING GROUP 1 FACE 292
   ** Warning ** GetSurfaceData: Very small surface area[8.00000E-004], Surface=Mir-SHADING GROUP 1 FACE 292
   ** Warning ** GetSurfaceData: Very small surface area[8.00000E-004], Surface=SHADING GROUP 1 FACE 293
   ** Warning ** GetSurfaceData: Very small surface area[8.00000E-004], Surface=Mir-SHADING GROUP 1 FACE 293
   ** Warning ** GetSurfaceData: Very small surface area[8.00000E-004], Surface=SHADING GROUP 1 FACE 294
   ** Warning ** GetSurfaceData: Very small surface area[8.00000E-004], Surface=Mir-SHADING GROUP 1 FACE 294
   ** Warning ** GetSurfaceData: Very small surface area[8.00000E-004], Surface=SHADING GROUP 1 FACE 297
   ** Warning ** GetSurfaceData: Very small surface area[8.00000E-004], Surface=Mir-SHADING GROUP 1 FACE 297
   ** Warning ** GetSurfaceData: Very small surface area[8.00000E-004], Surface=SHADING GROUP 1 FACE 298
   ** Warning ** GetSurfaceData: Very small surface area[8.00000E-004], Surface=Mir-SHADING GROUP 1 FACE 298
   ** Warning ** GetSurfaceData: Very small surface area[8.00000E-004], Surface=SHADING GROUP 1 FACE 299
   ** Warning ** GetSurfaceData: Very small surface area[8.00000E-004], Surface=Mir-SHADING GROUP 1 FACE 299
   ** Warning ** GetSurfaceData: Very small surface area[8.00000E-004], Surface=SHADING GROUP 1 FACE 300
   ** Warning ** GetSurfaceData: Very small surface area[8.00000E-004], Surface=Mir-SHADING GROUP 1 FACE 300
   ** Warning ** GetSurfaceData: Very small surface area[8.00000E-004], Surface=SHADING GROUP 1 FACE 303
   ** Warning ** GetSurfaceData: Very small surface area[8.00000E-004], Surface=Mir-SHADING GROUP 1 FACE 303
   ** Warning ** GetSurfaceData: Very small surface area[8.00000E-004], Surface=SHADING GROUP 1 FACE 304
   ** Warning ** GetSurfaceData: Very small surface area[8.00000E-004], Surface=Mir-SHADING GROUP 1 FACE 304
   ** Warning ** GetSurfaceData: Very small surface area[8.00000E-004], Surface=SHADING GROUP 1 FACE 305
   ** Warning ** GetSurfaceData: Very small surface area[8.00000E-004], Surface=Mir-SHADING GROUP 1 FACE 305
   ** Warning ** GetSurfaceData: Very small surface area[8.00000E-004], Surface=SHADING GROUP 1 FACE 306
   ** Warning ** GetSurfaceData: Very small surface area[8.00000E-004], Surface=Mir-SHADING GROUP 1 FACE 306
   ** Warning ** GetSurfaceData: Very small surface area[8.00000E-004], Surface=SHADING GROUP 1 FACE 309
   ** Warning ** GetSurfaceData: Very small surface area[8.00000E-004], Surface=Mir-SHADING GROUP 1 FACE 309
   ** Warning ** GetSurfaceData: Very small surface area[8.00000E-004], Surface=SHADING GROUP 1 FACE 310
   ** Warning ** GetSurfaceData: Very small surface area[8.00000E-004], Surface=Mir-SHADING GROUP 1 FACE 310
   ** Warning ** GetSurfaceData: Very small surface area[8.00000E-004], Surface=SHADING GROUP 1 FACE 311
   ** Warning ** GetSurfaceData: Very small surface area[8.00000E-004], Surface=Mir-SHADING GROUP 1 FACE 311
   ** Warning ** GetSurfaceData: Very small surface area[8.00000E-004], Surface=SHADING GROUP 1 FACE 312
   ** Warning ** GetSurfaceData: Very small surface area[8.00000E-004], Surface=Mir-SHADING GROUP 1 FACE 312
   ** Warning ** GetSurfaceData: Very small surface area[8.00000E-004], Surface=SHADING GROUP 1 FACE 315
   ** Warning ** GetSurfaceData: Very small surface area[8.00000E-004], Surface=Mir-SHADING GROUP 1 FACE 315
   ** Warning ** GetSurfaceData: Very small surface area[8.00000E-004], Surface=SHADING GROUP 1 FACE 316
   ** Warning ** GetSurfaceData: Very small surface area[8.00000E-004], Surface=Mir-SHADING GROUP 1 FACE 316
   ** Warning ** GetSurfaceData: Very small surface area[8.00000E-004], Surface=SHADING GROUP 1 FACE 317
   ** Warning ** GetSurfaceData: Very small surface area[8.00000E-004], Surface=Mir-SHADING GROUP 1 FACE 317
   ** Warning ** GetSurfaceData: Very small surface area[8.00000E-004], Surface=SHADING GROUP 1 FACE 318
   ** Warning ** GetSurfaceData: Very small surface area[8.00000E-004], Surface=Mir-SHADING GROUP 1 FACE 318
   ** Warning ** GetSurfaceData: Very small surface area[8.00000E-004], Surface=SHADING GROUP 1 FACE 321
   ** Warning ** GetSurfaceData: Very small surface area[8.00000E-004], Surface=Mir-SHADING GROUP 1 FACE 321
   ** Warning ** GetSurfaceData: Very small surface area[8.00000E-004], Surface=SHADING GROUP 1 FACE 322
   ** Warning ** GetSurfaceData: Very small surface area[8.00000E-004], Surface=Mir-SHADING GROUP 1 FACE 322
   ** Warning ** GetSurfaceData: Very small surface area[8.00000E-004], Surface=SHADING GROUP 1 FACE 323
   ** Warning ** GetSurfaceData: Very small surface area[8.00000E-004], Surface=Mir-SHADING GROUP 1 FACE 323
   ** Warning ** GetSurfaceData: Very small surface area[8.00000E-004], Surface=SHADING GROUP 1 FACE 324
   ** Warning ** GetSurfaceData: Very small surface area[8.00000E-004], Surface=Mir-SHADING GROUP 1 FACE 324
   ** Warning ** CalcSurfaceCentroid: 324 Surfaces have the Z coordinate < 0.
   **   ~~~   ** ...in any calculations, Wind Speed will be 0.0 for these surfaces.
   **   ~~~   ** ...in any calculations, Outside temperatures will be the outside temperature + 9.750E-003 for these surfaces.
   **   ~~~   ** ...that is, these surfaces will have conditions as though at ground level.
   ** Warning ** GetSurfaceData: There are 432 coincident/collinear vertices; These have been deleted unless the deletion would bring the number of surface sides < 3.
   **   ~~~   ** For explicit details on each problem surface, use Output:Diagnostics,DisplayExtraWarnings;
   ** Severe  ** GetSurfaceData: There are 216 degenerate surfaces; Degenerate surfaces are those with number of sides < 3.
   **   ~~~   ** These surfaces should be deleted.
   **   ~~~   ** For explicit details on each problem surface, use Output:Diagnostics,DisplayExtraWarnings;
   ** Warning ** Calculation of reflected solar onto surface=ZONE1_FACE_6 may be inaccurate
   **   ~~~   ** because it has one or more vertices below ground level.
   ** Warning ** Calculation of reflected solar onto surface=ZONE1_FACE_6_WINDOW_1 may be inaccurate
   **   ~~~   ** because it has one or more vertices below ground level.
   ** Warning ** DeterminePolygonOverlap: Too many figures [>15000]  detected in an overlap calculation. Use Output:Diagnostics,DisplayExtraWarnings; for more details.
   ************* Testing Individual Branch Integrity
   ************* All Branches passed integrity testing
   ************* Testing Individual Supply Air Path Integrity
   ************* All Supply Air Paths passed integrity testing
   ************* Testing Individual Return Air Path Integrity
   ************* All Return Air Paths passed integrity testing
   ************* No node connection errors were found.
   ************* Beginning Simulation
   ** Warning ** DeterminePolygonOverlap: Too many vertices [>12] detected in an overlap calculation. Use Output:Diagnostics,DisplayExtraWarnings; for more details.
   ************* Simulation Error Summary *************
   ************* There are 10 unused schedules in input.
   ************* Use Output:Diagnostics,DisplayUnusedSchedules; to see them.
   ************* EnergyPlus Warmup Error Summary. During Warmup: 0 Warning; 0 Severe Errors.
   ************* EnergyPlus Sizing Error Summary. During Sizing: 0 Warning; 0 Severe Errors.
   ************* EnergyPlus Completed Successfully-- 870 Warning; 216 Severe Errors; Elapsed Time=00hr 02min 12.46sec
