  0
SECTION
  2
ENTITIES
999
DXF created from EnergyPlus
999
Program Version,EnergyPlus-Windows-OMP-32 7.2.0.006, YMD=2014.05.13 18:55
999
Polygon Action,ThickPolyline
999
Color Scheme,Default
999
Text - True North
  0
TEXT
  8
1
  6
Continuous
 62
  3
 10
      -13.45000
 20
        2.49739
 30
        0.10000
 40
 .25
  1
True North
 41
 0.0
  7
MONOTXT
210
0.0
220
0.0
230
1.0
999
Text - Building Title
  0
TEXT
  8
1
  6
Continuous
 62
  3
 10
      -16.45000
 20
       -1.50261
 30
        0.10000
 40
 .4
  1
Building - BUILDING
 41
 0.0
  7
MONOTXT
210
0.0
220
0.0
230
1.0
999
North Arrow Stem
  0
3DFACE
  8
1
 62
  3
 10
      -12.45000
 20
        2.49739
 30
        0.10000
 11
      -12.45000
 21
        2.49739
 31
        0.00000
 12
      -12.45000
 22
       -0.50261
 32
        0.00000
 13
      -12.45000
 23
       -0.50261
 33
        0.10000
999
North Arrow Head 1
  0
3DFACE
  8
1
 62
  3
 10
      -12.45000
 20
        2.49739
 30
        0.10000
 11
      -12.45000
 21
        2.49739
 31
        0.00000
 12
      -12.95000
 22
        1.63136
 32
        0.00000
 13
      -12.95000
 23
        1.63136
 33
        0.10000
999
North Arrow Head 2
  0
3DFACE
  8
1
 62
  3
 10
      -12.45000
 20
        2.49739
 30
        0.10000
 11
      -12.45000
 21
        2.49739
 31
        0.00000
 12
      -11.95000
 22
        1.63136
 32
        0.00000
 13
      -11.95000
 23
        1.63136
 33
        0.10000
999
North Arrow Side 1
  0
3DFACE
  8
1
 62
  3
 10
      -12.95000
 20
        3.99739
 30
        0.10000
 11
      -12.95000
 21
        3.99739
 31
        0.00000
 12
      -12.95000
 22
        2.99739
 32
        0.00000
 13
      -12.95000
 23
        2.99739
 33
        0.10000
999
North Arrow Side 2
  0
3DFACE
  8
1
 62
  3
 10
      -12.95000
 20
        3.99739
 30
        0.10000
 11
      -12.95000
 21
        3.99739
 31
        0.00000
 12
      -11.95000
 22
        2.99739
 32
        0.00000
 13
      -11.95000
 23
        2.99739
 33
        0.10000
999
North Arrow Side 3
  0
3DFACE
  8
1
 62
  3
 10
      -11.95000
 20
        3.99739
 30
        0.10000
 11
      -11.95000
 21
        3.99739
 31
        0.00000
 12
      -11.95000
 22
        2.99739
 32
        0.00000
 13
      -11.95000
 23
        2.99739
 33
        0.10000
999
Zone Names
999
Zone=1:ZONE1
999
Fixed Shading:SHADING GROUP 1 FACE 1
  0
3DFACE
  8
Fixed Shading
 62
  9
 10
        2.13435
 20
       -0.10262
 30
       -1.09804
 11
        1.85151
 21
       -0.09769
 31
       -1.38084
 12
        1.85151
 22
       -0.49762
 32
       -1.38782
 13
        2.13435
 23
       -0.50256
 33
       -1.10502
999
Fixed Shading:Mir-SHADING GROUP 1 FACE 1
  0
3DFACE
  8
Fixed Shading
 62
  9
 10
        2.13435
 20
       -0.50256
 30
       -1.10502
 11
        1.85151
 21
       -0.49762
 31
       -1.38782
 12
        1.85151
 22
       -0.09769
 32
       -1.38084
 13
        2.13435
 23
       -0.10262
 33
       -1.09804
999
Fixed Shading:SHADING GROUP 1 FACE 2
  0
3DFACE
  8
Fixed Shading
 62
  9
 10
        2.13152
 20
       -0.50261
 30
       -1.10219
 11
        1.84868
 21
       -0.49767
 31
       -1.38499
 12
        1.84868
 22
       -0.09774
 32
       -1.37801
 13
        2.13152
 23
       -0.10267
 33
       -1.09521
999
Fixed Shading:Mir-SHADING GROUP 1 FACE 2
  0
3DFACE
  8
Fixed Shading
 62
  9
 10
        2.13152
 20
       -0.10267
 30
       -1.09521
 11
        1.84868
 21
       -0.09774
 31
       -1.37801
 12
        1.84868
 22
       -0.49767
 32
       -1.38499
 13
        2.13152
 23
       -0.50261
 33
       -1.10219
999
Fixed Shading:SHADING GROUP 1 FACE 3
  0
3DFACE
  8
Fixed Shading
 62
  9
 10
        2.13435
 20
       -0.50256
 30
       -1.10502
 11
        2.13152
 21
       -0.10267
 31
       -1.09521
 12
        2.13435
 22
       -0.10262
 32
       -1.09804
 13
        2.13435
 23
       -0.10262
 33
       -1.09804
999
Fixed Shading:Mir-SHADING GROUP 1 FACE 3
  0
3DFACE
  8
Fixed Shading
 62
  9
 10
        2.13435
 20
       -0.10262
 30
       -1.09804
 11
        2.13152
 21
       -0.10267
 31
       -1.09521
 12
        2.13435
 22
       -0.50256
 32
       -1.10502
 13
        2.13435
 23
       -0.50256
 33
       -1.10502
999
Fixed Shading:SHADING GROUP 1 FACE 4
  0
3DFACE
  8
Fixed Shading
 62
  9
 10
        1.85151
 20
       -0.49762
 30
       -1.38782
 11
        2.13152
 21
       -0.50261
 31
       -1.10219
 12
        2.13435
 22
       -0.50256
 32
       -1.10502
 13
        2.13435
 23
       -0.50256
 33
       -1.10502
999
Fixed Shading:Mir-SHADING GROUP 1 FACE 4
  0
3DFACE
  8
Fixed Shading
 62
  9
 10
        2.13435
 20
       -0.50256
 30
       -1.10502
 11
        2.13152
 21
       -0.50261
 31
       -1.10219
 12
        1.85151
 22
       -0.49762
 32
       -1.38782
 13
        1.85151
 23
       -0.49762
 33
       -1.38782
999
Fixed Shading:SHADING GROUP 1 FACE 5
  0
3DFACE
  8
Fixed Shading
 62
  9
 10
        1.85151
 20
       -0.09769
 30
       -1.38084
 11
        1.84868
 21
       -0.49767
 31
       -1.38499
 12
        1.85151
 22
       -0.49762
 32
       -1.38782
 13
        1.85151
 23
       -0.49762
 33
       -1.38782
999
Fixed Shading:Mir-SHADING GROUP 1 FACE 5
  0
3DFACE
  8
Fixed Shading
 62
  9
 10
        1.85151
 20
       -0.49762
 30
       -1.38782
 11
        1.84868
 21
       -0.49767
 31
       -1.38499
 12
        1.85151
 22
       -0.09769
 32
       -1.38084
 13
        1.85151
 23
       -0.09769
 33
       -1.38084
999
Fixed Shading:SHADING GROUP 1 FACE 6
  0
3DFACE
  8
Fixed Shading
 62
  9
 10
        2.13435
 20
       -0.10262
 30
       -1.09804
 11
        1.84868
 21
       -0.09774
 31
       -1.37801
 12
        1.85151
 22
       -0.09769
 32
       -1.38084
 13
        1.85151
 23
       -0.09769
 33
       -1.38084
999
Fixed Shading:Mir-SHADING GROUP 1 FACE 6
  0
3DFACE
  8
Fixed Shading
 62
  9
 10
        1.85151
 20
       -0.09769
 30
       -1.38084
 11
        1.84868
 21
       -0.09774
 31
       -1.37801
 12
        2.13435
 22
       -0.10262
 32
       -1.09804
 13
        2.13435
 23
       -0.10262
 33
       -1.09804
999
Fixed Shading:SHADING GROUP 1 FACE 7
  0
3DFACE
  8
Fixed Shading
 62
  9
 10
        1.63435
 20
       -0.10262
 30
       -1.09804
 11
        1.35151
 21
       -0.09769
 31
       -1.38084
 12
        1.35151
 22
       -0.49762
 32
       -1.38782
 13
        1.63435
 23
       -0.50256
 33
       -1.10502
999
Fixed Shading:Mir-SHADING GROUP 1 FACE 7
  0
3DFACE
  8
Fixed Shading
 62
  9
 10
        1.63435
 20
       -0.50256
 30
       -1.10502
 11
        1.35151
 21
       -0.49762
 31
       -1.38782
 12
        1.35151
 22
       -0.09769
 32
       -1.38084
 13
        1.63435
 23
       -0.10262
 33
       -1.09804
999
Fixed Shading:SHADING GROUP 1 FACE 8
  0
3DFACE
  8
Fixed Shading
 62
  9
 10
        1.63152
 20
       -0.50261
 30
       -1.10219
 11
        1.34868
 21
       -0.49767
 31
       -1.38499
 12
        1.34868
 22
       -0.09774
 32
       -1.37801
 13
        1.63152
 23
       -0.10267
 33
       -1.09521
999
Fixed Shading:Mir-SHADING GROUP 1 FACE 8
  0
3DFACE
  8
Fixed Shading
 62
  9
 10
        1.63152
 20
       -0.10267
 30
       -1.09521
 11
        1.34868
 21
       -0.09774
 31
       -1.37801
 12
        1.34868
 22
       -0.49767
 32
       -1.38499
 13
        1.63152
 23
       -0.50261
 33
       -1.10219
999
Fixed Shading:SHADING GROUP 1 FACE 9
  0
3DFACE
  8
Fixed Shading
 62
  9
 10
        1.63435
 20
       -0.50256
 30
       -1.10502
 11
        1.63152
 21
       -0.10267
 31
       -1.09521
 12
        1.63435
 22
       -0.10262
 32
       -1.09804
 13
        1.63435
 23
       -0.10262
 33
       -1.09804
999
Fixed Shading:Mir-SHADING GROUP 1 FACE 9
  0
3DFACE
  8
Fixed Shading
 62
  9
 10
        1.63435
 20
       -0.10262
 30
       -1.09804
 11
        1.63152
 21
       -0.10267
 31
       -1.09521
 12
        1.63435
 22
       -0.50256
 32
       -1.10502
 13
        1.63435
 23
       -0.50256
 33
       -1.10502
999
Fixed Shading:SHADING GROUP 1 FACE 10
  0
3DFACE
  8
Fixed Shading
 62
  9
 10
        1.35151
 20
       -0.49762
 30
       -1.38782
 11
        1.63152
 21
       -0.50261
 31
       -1.10219
 12
        1.63435
 22
       -0.50256
 32
       -1.10502
 13
        1.63435
 23
       -0.50256
 33
       -1.10502
999
Fixed Shading:Mir-SHADING GROUP 1 FACE 10
  0
3DFACE
  8
Fixed Shading
 62
  9
 10
        1.63435
 20
       -0.50256
 30
       -1.10502
 11
        1.63152
 21
       -0.50261
 31
       -1.10219
 12
        1.35151
 22
       -0.49762
 32
       -1.38782
 13
        1.35151
 23
       -0.49762
 33
       -1.38782
999
Fixed Shading:SHADING GROUP 1 FACE 11
  0
3DFACE
  8
Fixed Shading
 62
  9
 10
        1.35151
 20
       -0.09769
 30
       -1.38084
 11
        1.34868
 21
       -0.49767
 31
       -1.38499
 12
        1.35151
 22
       -0.49762
 32
       -1.38782
 13
        1.35151
 23
       -0.49762
 33
       -1.38782
999
Fixed Shading:Mir-SHADING GROUP 1 FACE 11
  0
3DFACE
  8
Fixed Shading
 62
  9
 10
        1.35151
 20
       -0.49762
 30
       -1.38782
 11
        1.34868
 21
       -0.49767
 31
       -1.38499
 12
        1.35151
 22
       -0.09769
 32
       -1.38084
 13
        1.35151
 23
       -0.09769
 33
       -1.38084
999
Fixed Shading:SHADING GROUP 1 FACE 12
  0
3DFACE
  8
Fixed Shading
 62
  9
 10
        1.63435
 20
       -0.10262
 30
       -1.09804
 11
        1.34868
 21
       -0.09774
 31
       -1.37801
 12
        1.35151
 22
       -0.09769
 32
       -1.38084
 13
        1.35151
 23
       -0.09769
 33
       -1.38084
999
Fixed Shading:Mir-SHADING GROUP 1 FACE 12
  0
3DFACE
  8
Fixed Shading
 62
  9
 10
        1.35151
 20
       -0.09769
 30
       -1.38084
 11
        1.34868
 21
       -0.09774
 31
       -1.37801
 12
        1.63435
 22
       -0.10262
 32
       -1.09804
 13
        1.63435
 23
       -0.10262
 33
       -1.09804
999
Fixed Shading:SHADING GROUP 1 FACE 13
  0
3DFACE
  8
Fixed Shading
 62
  9
 10
        1.13435
 20
       -0.10262
 30
       -1.09804
 11
        0.85151
 21
       -0.09769
 31
       -1.38084
 12
        0.85151
 22
       -0.49762
 32
       -1.38782
 13
        1.13435
 23
       -0.50256
 33
       -1.10502
999
Fixed Shading:Mir-SHADING GROUP 1 FACE 13
  0
3DFACE
  8
Fixed Shading
 62
  9
 10
        1.13435
 20
       -0.50256
 30
       -1.10502
 11
        0.85151
 21
       -0.49762
 31
       -1.38782
 12
        0.85151
 22
       -0.09769
 32
       -1.38084
 13
        1.13435
 23
       -0.10262
 33
       -1.09804
999
Fixed Shading:SHADING GROUP 1 FACE 14
  0
3DFACE
  8
Fixed Shading
 62
  9
 10
        1.13152
 20
       -0.50261
 30
       -1.10219
 11
        0.84868
 21
       -0.49767
 31
       -1.38499
 12
        0.84868
 22
       -0.09774
 32
       -1.37801
 13
        1.13152
 23
       -0.10267
 33
       -1.09521
999
Fixed Shading:Mir-SHADING GROUP 1 FACE 14
  0
3DFACE
  8
Fixed Shading
 62
  9
 10
        1.13152
 20
       -0.10267
 30
       -1.09521
 11
        0.84868
 21
       -0.09774
 31
       -1.37801
 12
        0.84868
 22
       -0.49767
 32
       -1.38499
 13
        1.13152
 23
       -0.50261
 33
       -1.10219
999
Fixed Shading:SHADING GROUP 1 FACE 15
  0
3DFACE
  8
Fixed Shading
 62
  9
 10
        1.13435
 20
       -0.50256
 30
       -1.10502
 11
        1.13152
 21
       -0.10267
 31
       -1.09521
 12
        1.13435
 22
       -0.10262
 32
       -1.09804
 13
        1.13435
 23
       -0.10262
 33
       -1.09804
999
Fixed Shading:Mir-SHADING GROUP 1 FACE 15
  0
3DFACE
  8
Fixed Shading
 62
  9
 10
        1.13435
 20
       -0.10262
 30
       -1.09804
 11
        1.13152
 21
       -0.10267
 31
       -1.09521
 12
        1.13435
 22
       -0.50256
 32
       -1.10502
 13
        1.13435
 23
       -0.50256
 33
       -1.10502
999
Fixed Shading:SHADING GROUP 1 FACE 16
  0
3DFACE
  8
Fixed Shading
 62
  9
 10
        0.85151
 20
       -0.49762
 30
       -1.38782
 11
        1.13152
 21
       -0.50261
 31
       -1.10219
 12
        1.13435
 22
       -0.50256
 32
       -1.10502
 13
        1.13435
 23
       -0.50256
 33
       -1.10502
999
Fixed Shading:Mir-SHADING GROUP 1 FACE 16
  0
3DFACE
  8
Fixed Shading
 62
  9
 10
        1.13435
 20
       -0.50256
 30
       -1.10502
 11
        1.13152
 21
       -0.50261
 31
       -1.10219
 12
        0.85151
 22
       -0.49762
 32
       -1.38782
 13
        0.85151
 23
       -0.49762
 33
       -1.38782
999
Fixed Shading:SHADING GROUP 1 FACE 17
  0
3DFACE
  8
Fixed Shading
 62
  9
 10
        0.85151
 20
       -0.09769
 30
       -1.38084
 11
        0.84868
 21
       -0.49767
 31
       -1.38499
 12
        0.85151
 22
       -0.49762
 32
       -1.38782
 13
        0.85151
 23
       -0.49762
 33
       -1.38782
999
Fixed Shading:Mir-SHADING GROUP 1 FACE 17
  0
3DFACE
  8
Fixed Shading
 62
  9
 10
        0.85151
 20
       -0.49762
 30
       -1.38782
 11
        0.84868
 21
       -0.49767
 31
       -1.38499
 12
        0.85151
 22
       -0.09769
 32
       -1.38084
 13
        0.85151
 23
       -0.09769
 33
       -1.38084
999
Fixed Shading:SHADING GROUP 1 FACE 18
  0
3DFACE
  8
Fixed Shading
 62
  9
 10
        1.13435
 20
       -0.10262
 30
       -1.09804
 11
        0.84868
 21
       -0.09774
 31
       -1.37801
 12
        0.85151
 22
       -0.09769
 32
       -1.38084
 13
        0.85151
 23
       -0.09769
 33
       -1.38084
999
Fixed Shading:Mir-SHADING GROUP 1 FACE 18
  0
3DFACE
  8
Fixed Shading
 62
  9
 10
        0.85151
 20
       -0.09769
 30
       -1.38084
 11
        0.84868
 21
       -0.09774
 31
       -1.37801
 12
        1.13435
 22
       -0.10262
 32
       -1.09804
 13
        1.13435
 23
       -0.10262
 33
       -1.09804
999
Fixed Shading:SHADING GROUP 1 FACE 19
  0
3DFACE
  8
Fixed Shading
 62
  9
 10
        0.63435
 20
       -0.10262
 30
       -1.09804
 11
        0.35151
 21
       -0.09769
 31
       -1.38084
 12
        0.35151
 22
       -0.49762
 32
       -1.38782
 13
        0.63435
 23
       -0.50256
 33
       -1.10502
999
Fixed Shading:Mir-SHADING GROUP 1 FACE 19
  0
3DFACE
  8
Fixed Shading
 62
  9
 10
        0.63435
 20
       -0.50256
 30
       -1.10502
 11
        0.35151
 21
       -0.49762
 31
       -1.38782
 12
        0.35151
 22
       -0.09769
 32
       -1.38084
 13
        0.63435
 23
       -0.10262
 33
       -1.09804
999
Fixed Shading:SHADING GROUP 1 FACE 20
  0
3DFACE
  8
Fixed Shading
 62
  9
 10
        0.63152
 20
       -0.50261
 30
       -1.10219
 11
        0.34868
 21
       -0.49767
 31
       -1.38499
 12
        0.34868
 22
       -0.09774
 32
       -1.37801
 13
        0.63152
 23
       -0.10267
 33
       -1.09521
999
Fixed Shading:Mir-SHADING GROUP 1 FACE 20
  0
3DFACE
  8
Fixed Shading
 62
  9
 10
        0.63152
 20
       -0.10267
 30
       -1.09521
 11
        0.34868
 21
       -0.09774
 31
       -1.37801
 12
        0.34868
 22
       -0.49767
 32
       -1.38499
 13
        0.63152
 23
       -0.50261
 33
       -1.10219
999
Fixed Shading:SHADING GROUP 1 FACE 21
  0
3DFACE
  8
Fixed Shading
 62
  9
 10
        0.63435
 20
       -0.50256
 30
       -1.10502
 11
        0.63152
 21
       -0.10267
 31
       -1.09521
 12
        0.63435
 22
       -0.10262
 32
       -1.09804
 13
        0.63435
 23
       -0.10262
 33
       -1.09804
999
Fixed Shading:Mir-SHADING GROUP 1 FACE 21
  0
3DFACE
  8
Fixed Shading
 62
  9
 10
        0.63435
 20
       -0.10262
 30
       -1.09804
 11
        0.63152
 21
       -0.10267
 31
       -1.09521
 12
        0.63435
 22
       -0.50256
 32
       -1.10502
 13
        0.63435
 23
       -0.50256
 33
       -1.10502
999
Fixed Shading:SHADING GROUP 1 FACE 22
  0
3DFACE
  8
Fixed Shading
 62
  9
 10
        0.35151
 20
       -0.49762
 30
       -1.38782
 11
        0.63152
 21
       -0.50261
 31
       -1.10219
 12
        0.63435
 22
       -0.50256
 32
       -1.10502
 13
        0.63435
 23
       -0.50256
 33
       -1.10502
999
Fixed Shading:Mir-SHADING GROUP 1 FACE 22
  0
3DFACE
  8
Fixed Shading
 62
  9
 10
        0.63435
 20
       -0.50256
 30
       -1.10502
 11
        0.63152
 21
       -0.50261
 31
       -1.10219
 12
        0.35151
 22
       -0.49762
 32
       -1.38782
 13
        0.35151
 23
       -0.49762
 33
       -1.38782
999
Fixed Shading:SHADING GROUP 1 FACE 23
  0
3DFACE
  8
Fixed Shading
 62
  9
 10
        0.35151
 20
       -0.09769
 30
       -1.38084
 11
        0.34868
 21
       -0.49767
 31
       -1.38499
 12
        0.35151
 22
       -0.49762
 32
       -1.38782
 13
        0.35151
 23
       -0.49762
 33
       -1.38782
999
Fixed Shading:Mir-SHADING GROUP 1 FACE 23
  0
3DFACE
  8
Fixed Shading
 62
  9
 10
        0.35151
 20
       -0.49762
 30
       -1.38782
 11
        0.34868
 21
       -0.49767
 31
       -1.38499
 12
        0.35151
 22
       -0.09769
 32
       -1.38084
 13
        0.35151
 23
       -0.09769
 33
       -1.38084
999
Fixed Shading:SHADING GROUP 1 FACE 24
  0
3DFACE
  8
Fixed Shading
 62
  9
 10
        0.63435
 20
       -0.10262
 30
       -1.09804
 11
        0.34868
 21
       -0.09774
 31
       -1.37801
 12
        0.35151
 22
       -0.09769
 32
       -1.38084
 13
        0.35151
 23
       -0.09769
 33
       -1.38084
999
Fixed Shading:Mir-SHADING GROUP 1 FACE 24
  0
3DFACE
  8
Fixed Shading
 62
  9
 10
        0.35151
 20
       -0.09769
 30
       -1.38084
 11
        0.34868
 21
       -0.09774
 31
       -1.37801
 12
        0.63435
 22
       -0.10262
 32
       -1.09804
 13
        0.63435
 23
       -0.10262
 33
       -1.09804
999
Fixed Shading:SHADING GROUP 1 FACE 25
  0
3DFACE
  8
Fixed Shading
 62
  9
 10
        0.13435
 20
       -0.10262
 30
       -1.09804
 11
       -0.14849
 21
       -0.09769
 31
       -1.38084
 12
       -0.14849
 22
       -0.49762
 32
       -1.38782
 13
        0.13435
 23
       -0.50256
 33
       -1.10502
999
Fixed Shading:Mir-SHADING GROUP 1 FACE 25
  0
3DFACE
  8
Fixed Shading
 62
  9
 10
        0.13435
 20
       -0.50256
 30
       -1.10502
 11
       -0.14849
 21
       -0.49762
 31
       -1.38782
 12
       -0.14849
 22
       -0.09769
 32
       -1.38084
 13
        0.13435
 23
       -0.10262
 33
       -1.09804
999
Fixed Shading:SHADING GROUP 1 FACE 26
  0
3DFACE
  8
Fixed Shading
 62
  9
 10
        0.13152
 20
       -0.50261
 30
       -1.10219
 11
       -0.15132
 21
       -0.49767
 31
       -1.38499
 12
       -0.15132
 22
       -0.09774
 32
       -1.37801
 13
        0.13152
 23
       -0.10267
 33
       -1.09521
999
Fixed Shading:Mir-SHADING GROUP 1 FACE 26
  0
3DFACE
  8
Fixed Shading
 62
  9
 10
        0.13152
 20
       -0.10267
 30
       -1.09521
 11
       -0.15132
 21
       -0.09774
 31
       -1.37801
 12
       -0.15132
 22
       -0.49767
 32
       -1.38499
 13
        0.13152
 23
       -0.50261
 33
       -1.10219
999
Fixed Shading:SHADING GROUP 1 FACE 27
  0
3DFACE
  8
Fixed Shading
 62
  9
 10
        0.13435
 20
       -0.50256
 30
       -1.10502
 11
        0.13152
 21
       -0.10267
 31
       -1.09521
 12
        0.13435
 22
       -0.10262
 32
       -1.09804
 13
        0.13435
 23
       -0.10262
 33
       -1.09804
999
Fixed Shading:Mir-SHADING GROUP 1 FACE 27
  0
3DFACE
  8
Fixed Shading
 62
  9
 10
        0.13435
 20
       -0.10262
 30
       -1.09804
 11
        0.13152
 21
       -0.10267
 31
       -1.09521
 12
        0.13435
 22
       -0.50256
 32
       -1.10502
 13
        0.13435
 23
       -0.50256
 33
       -1.10502
999
Fixed Shading:SHADING GROUP 1 FACE 28
  0
3DFACE
  8
Fixed Shading
 62
  9
 10
       -0.14849
 20
       -0.49762
 30
       -1.38782
 11
        0.13152
 21
       -0.50261
 31
       -1.10219
 12
        0.13435
 22
       -0.50256
 32
       -1.10502
 13
        0.13435
 23
       -0.50256
 33
       -1.10502
999
Fixed Shading:Mir-SHADING GROUP 1 FACE 28
  0
3DFACE
  8
Fixed Shading
 62
  9
 10
        0.13435
 20
       -0.50256
 30
       -1.10502
 11
        0.13152
 21
       -0.50261
 31
       -1.10219
 12
       -0.14849
 22
       -0.49762
 32
       -1.38782
 13
       -0.14849
 23
       -0.49762
 33
       -1.38782
999
Fixed Shading:SHADING GROUP 1 FACE 29
  0
3DFACE
  8
Fixed Shading
 62
  9
 10
       -0.14849
 20
       -0.09769
 30
       -1.38084
 11
       -0.15132
 21
       -0.49767
 31
       -1.38499
 12
       -0.14849
 22
       -0.49762
 32
       -1.38782
 13
       -0.14849
 23
       -0.49762
 33
       -1.38782
999
Fixed Shading:Mir-SHADING GROUP 1 FACE 29
  0
3DFACE
  8
Fixed Shading
 62
  9
 10
       -0.14849
 20
       -0.49762
 30
       -1.38782
 11
       -0.15132
 21
       -0.49767
 31
       -1.38499
 12
       -0.14849
 22
       -0.09769
 32
       -1.38084
 13
       -0.14849
 23
       -0.09769
 33
       -1.38084
999
Fixed Shading:SHADING GROUP 1 FACE 30
  0
3DFACE
  8
Fixed Shading
 62
  9
 10
        0.13435
 20
       -0.10262
 30
       -1.09804
 11
       -0.15132
 21
       -0.09774
 31
       -1.37801
 12
       -0.14849
 22
       -0.09769
 32
       -1.38084
 13
       -0.14849
 23
       -0.09769
 33
       -1.38084
999
Fixed Shading:Mir-SHADING GROUP 1 FACE 30
  0
3DFACE
  8
Fixed Shading
 62
  9
 10
       -0.14849
 20
       -0.09769
 30
       -1.38084
 11
       -0.15132
 21
       -0.09774
 31
       -1.37801
 12
        0.13435
 22
       -0.10262
 32
       -1.09804
 13
        0.13435
 23
       -0.10262
 33
       -1.09804
999
Fixed Shading:SHADING GROUP 1 FACE 31
  0
3DFACE
  8
Fixed Shading
 62
  9
 10
       -0.36565
 20
       -0.10262
 30
       -1.09804
 11
       -0.64849
 21
       -0.09769
 31
       -1.38084
 12
       -0.64849
 22
       -0.49762
 32
       -1.38782
 13
       -0.36565
 23
       -0.50256
 33
       -1.10502
999
Fixed Shading:Mir-SHADING GROUP 1 FACE 31
  0
3DFACE
  8
Fixed Shading
 62
  9
 10
       -0.36565
 20
       -0.50256
 30
       -1.10502
 11
       -0.64849
 21
       -0.49762
 31
       -1.38782
 12
       -0.64849
 22
       -0.09769
 32
       -1.38084
 13
       -0.36565
 23
       -0.10262
 33
       -1.09804
999
Fixed Shading:SHADING GROUP 1 FACE 32
  0
3DFACE
  8
Fixed Shading
 62
  9
 10
       -0.36848
 20
       -0.50261
 30
       -1.10219
 11
       -0.65132
 21
       -0.49767
 31
       -1.38499
 12
       -0.65132
 22
       -0.09774
 32
       -1.37801
 13
       -0.36848
 23
       -0.10267
 33
       -1.09521
999
Fixed Shading:Mir-SHADING GROUP 1 FACE 32
  0
3DFACE
  8
Fixed Shading
 62
  9
 10
       -0.36848
 20
       -0.10267
 30
       -1.09521
 11
       -0.65132
 21
       -0.09774
 31
       -1.37801
 12
       -0.65132
 22
       -0.49767
 32
       -1.38499
 13
       -0.36848
 23
       -0.50261
 33
       -1.10219
999
Fixed Shading:SHADING GROUP 1 FACE 33
  0
3DFACE
  8
Fixed Shading
 62
  9
 10
       -0.36565
 20
       -0.50256
 30
       -1.10502
 11
       -0.36848
 21
       -0.10267
 31
       -1.09521
 12
       -0.36565
 22
       -0.10262
 32
       -1.09804
 13
       -0.36565
 23
       -0.10262
 33
       -1.09804
999
Fixed Shading:Mir-SHADING GROUP 1 FACE 33
  0
3DFACE
  8
Fixed Shading
 62
  9
 10
       -0.36565
 20
       -0.10262
 30
       -1.09804
 11
       -0.36848
 21
       -0.10267
 31
       -1.09521
 12
       -0.36565
 22
       -0.50256
 32
       -1.10502
 13
       -0.36565
 23
       -0.50256
 33
       -1.10502
999
Fixed Shading:SHADING GROUP 1 FACE 34
  0
3DFACE
  8
Fixed Shading
 62
  9
 10
       -0.64849
 20
       -0.49762
 30
       -1.38782
 11
       -0.36848
 21
       -0.50261
 31
       -1.10219
 12
       -0.36565
 22
       -0.50256
 32
       -1.10502
 13
       -0.36565
 23
       -0.50256
 33
       -1.10502
999
Fixed Shading:Mir-SHADING GROUP 1 FACE 34
  0
3DFACE
  8
Fixed Shading
 62
  9
 10
       -0.36565
 20
       -0.50256
 30
       -1.10502
 11
       -0.36848
 21
       -0.50261
 31
       -1.10219
 12
       -0.64849
 22
       -0.49762
 32
       -1.38782
 13
       -0.64849
 23
       -0.49762
 33
       -1.38782
999
Fixed Shading:SHADING GROUP 1 FACE 35
  0
3DFACE
  8
Fixed Shading
 62
  9
 10
       -0.64849
 20
       -0.09769
 30
       -1.38084
 11
       -0.65132
 21
       -0.49767
 31
       -1.38499
 12
       -0.64849
 22
       -0.49762
 32
       -1.38782
 13
       -0.64849
 23
       -0.49762
 33
       -1.38782
999
Fixed Shading:Mir-SHADING GROUP 1 FACE 35
  0
3DFACE
  8
Fixed Shading
 62
  9
 10
       -0.64849
 20
       -0.49762
 30
       -1.38782
 11
       -0.65132
 21
       -0.49767
 31
       -1.38499
 12
       -0.64849
 22
       -0.09769
 32
       -1.38084
 13
       -0.64849
 23
       -0.09769
 33
       -1.38084
999
Fixed Shading:SHADING GROUP 1 FACE 36
  0
3DFACE
  8
Fixed Shading
 62
  9
 10
       -0.36565
 20
       -0.10262
 30
       -1.09804
 11
       -0.65132
 21
       -0.09774
 31
       -1.37801
 12
       -0.64849
 22
       -0.09769
 32
       -1.38084
 13
       -0.64849
 23
       -0.09769
 33
       -1.38084
999
Fixed Shading:Mir-SHADING GROUP 1 FACE 36
  0
3DFACE
  8
Fixed Shading
 62
  9
 10
       -0.64849
 20
       -0.09769
 30
       -1.38084
 11
       -0.65132
 21
       -0.09774
 31
       -1.37801
 12
       -0.36565
 22
       -0.10262
 32
       -1.09804
 13
       -0.36565
 23
       -0.10262
 33
       -1.09804
999
Fixed Shading:SHADING GROUP 1 FACE 37
  0
3DFACE
  8
Fixed Shading
 62
  9
 10
       -0.86565
 20
       -0.10262
 30
       -1.09804
 11
       -1.14849
 21
       -0.09769
 31
       -1.38084
 12
       -1.14849
 22
       -0.49762
 32
       -1.38782
 13
       -0.86565
 23
       -0.50256
 33
       -1.10502
999
Fixed Shading:Mir-SHADING GROUP 1 FACE 37
  0
3DFACE
  8
Fixed Shading
 62
  9
 10
       -0.86565
 20
       -0.50256
 30
       -1.10502
 11
       -1.14849
 21
       -0.49762
 31
       -1.38782
 12
       -1.14849
 22
       -0.09769
 32
       -1.38084
 13
       -0.86565
 23
       -0.10262
 33
       -1.09804
999
Fixed Shading:SHADING GROUP 1 FACE 38
  0
3DFACE
  8
Fixed Shading
 62
  9
 10
       -0.86848
 20
       -0.50261
 30
       -1.10219
 11
       -1.15132
 21
       -0.49767
 31
       -1.38499
 12
       -1.15132
 22
       -0.09774
 32
       -1.37801
 13
       -0.86848
 23
       -0.10267
 33
       -1.09521
999
Fixed Shading:Mir-SHADING GROUP 1 FACE 38
  0
3DFACE
  8
Fixed Shading
 62
  9
 10
       -0.86848
 20
       -0.10267
 30
       -1.09521
 11
       -1.15132
 21
       -0.09774
 31
       -1.37801
 12
       -1.15132
 22
       -0.49767
 32
       -1.38499
 13
       -0.86848
 23
       -0.50261
 33
       -1.10219
999
Fixed Shading:SHADING GROUP 1 FACE 39
  0
3DFACE
  8
Fixed Shading
 62
  9
 10
       -0.86565
 20
       -0.50256
 30
       -1.10502
 11
       -0.86848
 21
       -0.10267
 31
       -1.09521
 12
       -0.86565
 22
       -0.10262
 32
       -1.09804
 13
       -0.86565
 23
       -0.10262
 33
       -1.09804
999
Fixed Shading:Mir-SHADING GROUP 1 FACE 39
  0
3DFACE
  8
Fixed Shading
 62
  9
 10
       -0.86565
 20
       -0.10262
 30
       -1.09804
 11
       -0.86848
 21
       -0.10267
 31
       -1.09521
 12
       -0.86565
 22
       -0.50256
 32
       -1.10502
 13
       -0.86565
 23
       -0.50256
 33
       -1.10502
999
Fixed Shading:SHADING GROUP 1 FACE 40
  0
3DFACE
  8
Fixed Shading
 62
  9
 10
       -1.14849
 20
       -0.49762
 30
       -1.38782
 11
       -0.86848
 21
       -0.50261
 31
       -1.10219
 12
       -0.86565
 22
       -0.50256
 32
       -1.10502
 13
       -0.86565
 23
       -0.50256
 33
       -1.10502
999
Fixed Shading:Mir-SHADING GROUP 1 FACE 40
  0
3DFACE
  8
Fixed Shading
 62
  9
 10
       -0.86565
 20
       -0.50256
 30
       -1.10502
 11
       -0.86848
 21
       -0.50261
 31
       -1.10219
 12
       -1.14849
 22
       -0.49762
 32
       -1.38782
 13
       -1.14849
 23
       -0.49762
 33
       -1.38782
999
Fixed Shading:SHADING GROUP 1 FACE 41
  0
3DFACE
  8
Fixed Shading
 62
  9
 10
       -1.14849
 20
       -0.09769
 30
       -1.38084
 11
       -1.15132
 21
       -0.49767
 31
       -1.38499
 12
       -1.14849
 22
       -0.49762
 32
       -1.38782
 13
       -1.14849
 23
       -0.49762
 33
       -1.38782
999
Fixed Shading:Mir-SHADING GROUP 1 FACE 41
  0
3DFACE
  8
Fixed Shading
 62
  9
 10
       -1.14849
 20
       -0.49762
 30
       -1.38782
 11
       -1.15132
 21
       -0.49767
 31
       -1.38499
 12
       -1.14849
 22
       -0.09769
 32
       -1.38084
 13
       -1.14849
 23
       -0.09769
 33
       -1.38084
999
Fixed Shading:SHADING GROUP 1 FACE 42
  0
3DFACE
  8
Fixed Shading
 62
  9
 10
       -0.86565
 20
       -0.10262
 30
       -1.09804
 11
       -1.15132
 21
       -0.09774
 31
       -1.37801
 12
       -1.14849
 22
       -0.09769
 32
       -1.38084
 13
       -1.14849
 23
       -0.09769
 33
       -1.38084
999
Fixed Shading:Mir-SHADING GROUP 1 FACE 42
  0
3DFACE
  8
Fixed Shading
 62
  9
 10
       -1.14849
 20
       -0.09769
 30
       -1.38084
 11
       -1.15132
 21
       -0.09774
 31
       -1.37801
 12
       -0.86565
 22
       -0.10262
 32
       -1.09804
 13
       -0.86565
 23
       -0.10262
 33
       -1.09804
999
Fixed Shading:SHADING GROUP 1 FACE 43
  0
3DFACE
  8
Fixed Shading
 62
  9
 10
       -1.36565
 20
       -0.10262
 30
       -1.09804
 11
       -1.64849
 21
       -0.09769
 31
       -1.38084
 12
       -1.64849
 22
       -0.49762
 32
       -1.38782
 13
       -1.36565
 23
       -0.50256
 33
       -1.10502
999
Fixed Shading:Mir-SHADING GROUP 1 FACE 43
  0
3DFACE
  8
Fixed Shading
 62
  9
 10
       -1.36565
 20
       -0.50256
 30
       -1.10502
 11
       -1.64849
 21
       -0.49762
 31
       -1.38782
 12
       -1.64849
 22
       -0.09769
 32
       -1.38084
 13
       -1.36565
 23
       -0.10262
 33
       -1.09804
999
Fixed Shading:SHADING GROUP 1 FACE 44
  0
3DFACE
  8
Fixed Shading
 62
  9
 10
       -1.36848
 20
       -0.50261
 30
       -1.10219
 11
       -1.65132
 21
       -0.49767
 31
       -1.38499
 12
       -1.65132
 22
       -0.09774
 32
       -1.37801
 13
       -1.36848
 23
       -0.10267
 33
       -1.09521
999
Fixed Shading:Mir-SHADING GROUP 1 FACE 44
  0
3DFACE
  8
Fixed Shading
 62
  9
 10
       -1.36848
 20
       -0.10267
 30
       -1.09521
 11
       -1.65132
 21
       -0.09774
 31
       -1.37801
 12
       -1.65132
 22
       -0.49767
 32
       -1.38499
 13
       -1.36848
 23
       -0.50261
 33
       -1.10219
999
Fixed Shading:SHADING GROUP 1 FACE 45
  0
3DFACE
  8
Fixed Shading
 62
  9
 10
       -1.36565
 20
       -0.50256
 30
       -1.10502
 11
       -1.36848
 21
       -0.10267
 31
       -1.09521
 12
       -1.36565
 22
       -0.10262
 32
       -1.09804
 13
       -1.36565
 23
       -0.10262
 33
       -1.09804
999
Fixed Shading:Mir-SHADING GROUP 1 FACE 45
  0
3DFACE
  8
Fixed Shading
 62
  9
 10
       -1.36565
 20
       -0.10262
 30
       -1.09804
 11
       -1.36848
 21
       -0.10267
 31
       -1.09521
 12
       -1.36565
 22
       -0.50256
 32
       -1.10502
 13
       -1.36565
 23
       -0.50256
 33
       -1.10502
999
Fixed Shading:SHADING GROUP 1 FACE 46
  0
3DFACE
  8
Fixed Shading
 62
  9
 10
       -1.64849
 20
       -0.49762
 30
       -1.38782
 11
       -1.36848
 21
       -0.50261
 31
       -1.10219
 12
       -1.36565
 22
       -0.50256
 32
       -1.10502
 13
       -1.36565
 23
       -0.50256
 33
       -1.10502
999
Fixed Shading:Mir-SHADING GROUP 1 FACE 46
  0
3DFACE
  8
Fixed Shading
 62
  9
 10
       -1.36565
 20
       -0.50256
 30
       -1.10502
 11
       -1.36848
 21
       -0.50261
 31
       -1.10219
 12
       -1.64849
 22
       -0.49762
 32
       -1.38782
 13
       -1.64849
 23
       -0.49762
 33
       -1.38782
999
Fixed Shading:SHADING GROUP 1 FACE 47
  0
3DFACE
  8
Fixed Shading
 62
  9
 10
       -1.64849
 20
       -0.09769
 30
       -1.38084
 11
       -1.65132
 21
       -0.49767
 31
       -1.38499
 12
       -1.64849
 22
       -0.49762
 32
       -1.38782
 13
       -1.64849
 23
       -0.49762
 33
       -1.38782
999
Fixed Shading:Mir-SHADING GROUP 1 FACE 47
  0
3DFACE
  8
Fixed Shading
 62
  9
 10
       -1.64849
 20
       -0.49762
 30
       -1.38782
 11
       -1.65132
 21
       -0.49767
 31
       -1.38499
 12
       -1.64849
 22
       -0.09769
 32
       -1.38084
 13
       -1.64849
 23
       -0.09769
 33
       -1.38084
999
Fixed Shading:SHADING GROUP 1 FACE 48
  0
3DFACE
  8
Fixed Shading
 62
  9
 10
       -1.36565
 20
       -0.10262
 30
       -1.09804
 11
       -1.65132
 21
       -0.09774
 31
       -1.37801
 12
       -1.64849
 22
       -0.09769
 32
       -1.38084
 13
       -1.64849
 23
       -0.09769
 33
       -1.38084
999
Fixed Shading:Mir-SHADING GROUP 1 FACE 48
  0
3DFACE
  8
Fixed Shading
 62
  9
 10
       -1.64849
 20
       -0.09769
 30
       -1.38084
 11
       -1.65132
 21
       -0.09774
 31
       -1.37801
 12
       -1.36565
 22
       -0.10262
 32
       -1.09804
 13
       -1.36565
 23
       -0.10262
 33
       -1.09804
999
Fixed Shading:SHADING GROUP 1 FACE 49
  0
3DFACE
  8
Fixed Shading
 62
  9
 10
       -1.86565
 20
       -0.10262
 30
       -1.09804
 11
       -2.14849
 21
       -0.09769
 31
       -1.38084
 12
       -2.14849
 22
       -0.49762
 32
       -1.38782
 13
       -1.86565
 23
       -0.50256
 33
       -1.10502
999
Fixed Shading:Mir-SHADING GROUP 1 FACE 49
  0
3DFACE
  8
Fixed Shading
 62
  9
 10
       -1.86565
 20
       -0.50256
 30
       -1.10502
 11
       -2.14849
 21
       -0.49762
 31
       -1.38782
 12
       -2.14849
 22
       -0.09769
 32
       -1.38084
 13
       -1.86565
 23
       -0.10262
 33
       -1.09804
999
Fixed Shading:SHADING GROUP 1 FACE 50
  0
3DFACE
  8
Fixed Shading
 62
  9
 10
       -1.86848
 20
       -0.50261
 30
       -1.10219
 11
       -2.15132
 21
       -0.49767
 31
       -1.38499
 12
       -2.15132
 22
       -0.09774
 32
       -1.37801
 13
       -1.86848
 23
       -0.10267
 33
       -1.09521
999
Fixed Shading:Mir-SHADING GROUP 1 FACE 50
  0
3DFACE
  8
Fixed Shading
 62
  9
 10
       -1.86848
 20
       -0.10267
 30
       -1.09521
 11
       -2.15132
 21
       -0.09774
 31
       -1.37801
 12
       -2.15132
 22
       -0.49767
 32
       -1.38499
 13
       -1.86848
 23
       -0.50261
 33
       -1.10219
999
Fixed Shading:SHADING GROUP 1 FACE 51
  0
3DFACE
  8
Fixed Shading
 62
  9
 10
       -1.86565
 20
       -0.50256
 30
       -1.10502
 11
       -1.86848
 21
       -0.10267
 31
       -1.09521
 12
       -1.86565
 22
       -0.10262
 32
       -1.09804
 13
       -1.86565
 23
       -0.10262
 33
       -1.09804
999
Fixed Shading:Mir-SHADING GROUP 1 FACE 51
  0
3DFACE
  8
Fixed Shading
 62
  9
 10
       -1.86565
 20
       -0.10262
 30
       -1.09804
 11
       -1.86848
 21
       -0.10267
 31
       -1.09521
 12
       -1.86565
 22
       -0.50256
 32
       -1.10502
 13
       -1.86565
 23
       -0.50256
 33
       -1.10502
999
Fixed Shading:SHADING GROUP 1 FACE 52
  0
3DFACE
  8
Fixed Shading
 62
  9
 10
       -2.14849
 20
       -0.49762
 30
       -1.38782
 11
       -1.86848
 21
       -0.50261
 31
       -1.10219
 12
       -1.86565
 22
       -0.50256
 32
       -1.10502
 13
       -1.86565
 23
       -0.50256
 33
       -1.10502
999
Fixed Shading:Mir-SHADING GROUP 1 FACE 52
  0
3DFACE
  8
Fixed Shading
 62
  9
 10
       -1.86565
 20
       -0.50256
 30
       -1.10502
 11
       -1.86848
 21
       -0.50261
 31
       -1.10219
 12
       -2.14849
 22
       -0.49762
 32
       -1.38782
 13
       -2.14849
 23
       -0.49762
 33
       -1.38782
999
Fixed Shading:SHADING GROUP 1 FACE 53
  0
3DFACE
  8
Fixed Shading
 62
  9
 10
       -2.14849
 20
       -0.09769
 30
       -1.38084
 11
       -2.15132
 21
       -0.49767
 31
       -1.38499
 12
       -2.14849
 22
       -0.49762
 32
       -1.38782
 13
       -2.14849
 23
       -0.49762
 33
       -1.38782
999
Fixed Shading:Mir-SHADING GROUP 1 FACE 53
  0
3DFACE
  8
Fixed Shading
 62
  9
 10
       -2.14849
 20
       -0.49762
 30
       -1.38782
 11
       -2.15132
 21
       -0.49767
 31
       -1.38499
 12
       -2.14849
 22
       -0.09769
 32
       -1.38084
 13
       -2.14849
 23
       -0.09769
 33
       -1.38084
999
Fixed Shading:SHADING GROUP 1 FACE 54
  0
3DFACE
  8
Fixed Shading
 62
  9
 10
       -1.86565
 20
       -0.10262
 30
       -1.09804
 11
       -2.15132
 21
       -0.09774
 31
       -1.37801
 12
       -2.14849
 22
       -0.09769
 32
       -1.38084
 13
       -2.14849
 23
       -0.09769
 33
       -1.38084
999
Fixed Shading:Mir-SHADING GROUP 1 FACE 54
  0
3DFACE
  8
Fixed Shading
 62
  9
 10
       -2.14849
 20
       -0.09769
 30
       -1.38084
 11
       -2.15132
 21
       -0.09774
 31
       -1.37801
 12
       -1.86565
 22
       -0.10262
 32
       -1.09804
 13
       -1.86565
 23
       -0.10262
 33
       -1.09804
999
Fixed Shading:SHADING GROUP 1 FACE 55
  0
3DFACE
  8
Fixed Shading
 62
  9
 10
        2.13435
 20
       -0.10262
 30
       -0.59804
 11
        1.85151
 21
       -0.09769
 31
       -0.88084
 12
        1.85151
 22
       -0.49762
 32
       -0.88782
 13
        2.13435
 23
       -0.50256
 33
       -0.60502
999
Fixed Shading:Mir-SHADING GROUP 1 FACE 55
  0
3DFACE
  8
Fixed Shading
 62
  9
 10
        2.13435
 20
       -0.50256
 30
       -0.60502
 11
        1.85151
 21
       -0.49762
 31
       -0.88782
 12
        1.85151
 22
       -0.09769
 32
       -0.88084
 13
        2.13435
 23
       -0.10262
 33
       -0.59804
999
Fixed Shading:SHADING GROUP 1 FACE 56
  0
3DFACE
  8
Fixed Shading
 62
  9
 10
        2.13152
 20
       -0.50261
 30
       -0.60219
 11
        1.84868
 21
       -0.49767
 31
       -0.88499
 12
        1.84868
 22
       -0.09774
 32
       -0.87801
 13
        2.13152
 23
       -0.10267
 33
       -0.59521
999
Fixed Shading:Mir-SHADING GROUP 1 FACE 56
  0
3DFACE
  8
Fixed Shading
 62
  9
 10
        2.13152
 20
       -0.10267
 30
       -0.59521
 11
        1.84868
 21
       -0.09774
 31
       -0.87801
 12
        1.84868
 22
       -0.49767
 32
       -0.88499
 13
        2.13152
 23
       -0.50261
 33
       -0.60219
999
Fixed Shading:SHADING GROUP 1 FACE 57
  0
3DFACE
  8
Fixed Shading
 62
  9
 10
        2.13435
 20
       -0.50256
 30
       -0.60502
 11
        2.13152
 21
       -0.10267
 31
       -0.59521
 12
        2.13435
 22
       -0.10262
 32
       -0.59804
 13
        2.13435
 23
       -0.10262
 33
       -0.59804
999
Fixed Shading:Mir-SHADING GROUP 1 FACE 57
  0
3DFACE
  8
Fixed Shading
 62
  9
 10
        2.13435
 20
       -0.10262
 30
       -0.59804
 11
        2.13152
 21
       -0.10267
 31
       -0.59521
 12
        2.13435
 22
       -0.50256
 32
       -0.60502
 13
        2.13435
 23
       -0.50256
 33
       -0.60502
999
Fixed Shading:SHADING GROUP 1 FACE 58
  0
3DFACE
  8
Fixed Shading
 62
  9
 10
        1.85151
 20
       -0.49762
 30
       -0.88782
 11
        2.13152
 21
       -0.50261
 31
       -0.60219
 12
        2.13435
 22
       -0.50256
 32
       -0.60502
 13
        2.13435
 23
       -0.50256
 33
       -0.60502
999
Fixed Shading:Mir-SHADING GROUP 1 FACE 58
  0
3DFACE
  8
Fixed Shading
 62
  9
 10
        2.13435
 20
       -0.50256
 30
       -0.60502
 11
        2.13152
 21
       -0.50261
 31
       -0.60219
 12
        1.85151
 22
       -0.49762
 32
       -0.88782
 13
        1.85151
 23
       -0.49762
 33
       -0.88782
999
Fixed Shading:SHADING GROUP 1 FACE 59
  0
3DFACE
  8
Fixed Shading
 62
  9
 10
        1.85151
 20
       -0.09769
 30
       -0.88084
 11
        1.84868
 21
       -0.49767
 31
       -0.88499
 12
        1.85151
 22
       -0.49762
 32
       -0.88782
 13
        1.85151
 23
       -0.49762
 33
       -0.88782
999
Fixed Shading:Mir-SHADING GROUP 1 FACE 59
  0
3DFACE
  8
Fixed Shading
 62
  9
 10
        1.85151
 20
       -0.49762
 30
       -0.88782
 11
        1.84868
 21
       -0.49767
 31
       -0.88499
 12
        1.85151
 22
       -0.09769
 32
       -0.88084
 13
        1.85151
 23
       -0.09769
 33
       -0.88084
999
Fixed Shading:SHADING GROUP 1 FACE 60
  0
3DFACE
  8
Fixed Shading
 62
  9
 10
        2.13435
 20
       -0.10262
 30
       -0.59804
 11
        1.84868
 21
       -0.09774
 31
       -0.87801
 12
        1.85151
 22
       -0.09769
 32
       -0.88084
 13
        1.85151
 23
       -0.09769
 33
       -0.88084
999
Fixed Shading:Mir-SHADING GROUP 1 FACE 60
  0
3DFACE
  8
Fixed Shading
 62
  9
 10
        1.85151
 20
       -0.09769
 30
       -0.88084
 11
        1.84868
 21
       -0.09774
 31
       -0.87801
 12
        2.13435
 22
       -0.10262
 32
       -0.59804
 13
        2.13435
 23
       -0.10262
 33
       -0.59804
999
Fixed Shading:SHADING GROUP 1 FACE 61
  0
3DFACE
  8
Fixed Shading
 62
  9
 10
        1.63435
 20
       -0.10262
 30
       -0.59804
 11
        1.35151
 21
       -0.09769
 31
       -0.88084
 12
        1.35151
 22
       -0.49762
 32
       -0.88782
 13
        1.63435
 23
       -0.50256
 33
       -0.60502
999
Fixed Shading:Mir-SHADING GROUP 1 FACE 61
  0
3DFACE
  8
Fixed Shading
 62
  9
 10
        1.63435
 20
       -0.50256
 30
       -0.60502
 11
        1.35151
 21
       -0.49762
 31
       -0.88782
 12
        1.35151
 22
       -0.09769
 32
       -0.88084
 13
        1.63435
 23
       -0.10262
 33
       -0.59804
999
Fixed Shading:SHADING GROUP 1 FACE 62
  0
3DFACE
  8
Fixed Shading
 62
  9
 10
        1.63152
 20
       -0.50261
 30
       -0.60219
 11
        1.34868
 21
       -0.49767
 31
       -0.88499
 12
        1.34868
 22
       -0.09774
 32
       -0.87801
 13
        1.63152
 23
       -0.10267
 33
       -0.59521
999
Fixed Shading:Mir-SHADING GROUP 1 FACE 62
  0
3DFACE
  8
Fixed Shading
 62
  9
 10
        1.63152
 20
       -0.10267
 30
       -0.59521
 11
        1.34868
 21
       -0.09774
 31
       -0.87801
 12
        1.34868
 22
       -0.49767
 32
       -0.88499
 13
        1.63152
 23
       -0.50261
 33
       -0.60219
999
Fixed Shading:SHADING GROUP 1 FACE 63
  0
3DFACE
  8
Fixed Shading
 62
  9
 10
        1.63435
 20
       -0.50256
 30
       -0.60502
 11
        1.63152
 21
       -0.10267
 31
       -0.59521
 12
        1.63435
 22
       -0.10262
 32
       -0.59804
 13
        1.63435
 23
       -0.10262
 33
       -0.59804
999
Fixed Shading:Mir-SHADING GROUP 1 FACE 63
  0
3DFACE
  8
Fixed Shading
 62
  9
 10
        1.63435
 20
       -0.10262
 30
       -0.59804
 11
        1.63152
 21
       -0.10267
 31
       -0.59521
 12
        1.63435
 22
       -0.50256
 32
       -0.60502
 13
        1.63435
 23
       -0.50256
 33
       -0.60502
999
Fixed Shading:SHADING GROUP 1 FACE 64
  0
3DFACE
  8
Fixed Shading
 62
  9
 10
        1.35151
 20
       -0.49762
 30
       -0.88782
 11
        1.63152
 21
       -0.50261
 31
       -0.60219
 12
        1.63435
 22
       -0.50256
 32
       -0.60502
 13
        1.63435
 23
       -0.50256
 33
       -0.60502
999
Fixed Shading:Mir-SHADING GROUP 1 FACE 64
  0
3DFACE
  8
Fixed Shading
 62
  9
 10
        1.63435
 20
       -0.50256
 30
       -0.60502
 11
        1.63152
 21
       -0.50261
 31
       -0.60219
 12
        1.35151
 22
       -0.49762
 32
       -0.88782
 13
        1.35151
 23
       -0.49762
 33
       -0.88782
999
Fixed Shading:SHADING GROUP 1 FACE 65
  0
3DFACE
  8
Fixed Shading
 62
  9
 10
        1.35151
 20
       -0.09769
 30
       -0.88084
 11
        1.34868
 21
       -0.49767
 31
       -0.88499
 12
        1.35151
 22
       -0.49762
 32
       -0.88782
 13
        1.35151
 23
       -0.49762
 33
       -0.88782
999
Fixed Shading:Mir-SHADING GROUP 1 FACE 65
  0
3DFACE
  8
Fixed Shading
 62
  9
 10
        1.35151
 20
       -0.49762
 30
       -0.88782
 11
        1.34868
 21
       -0.49767
 31
       -0.88499
 12
        1.35151
 22
       -0.09769
 32
       -0.88084
 13
        1.35151
 23
       -0.09769
 33
       -0.88084
999
Fixed Shading:SHADING GROUP 1 FACE 66
  0
3DFACE
  8
Fixed Shading
 62
  9
 10
        1.63435
 20
       -0.10262
 30
       -0.59804
 11
        1.34868
 21
       -0.09774
 31
       -0.87801
 12
        1.35151
 22
       -0.09769
 32
       -0.88084
 13
        1.35151
 23
       -0.09769
 33
       -0.88084
999
Fixed Shading:Mir-SHADING GROUP 1 FACE 66
  0
3DFACE
  8
Fixed Shading
 62
  9
 10
        1.35151
 20
       -0.09769
 30
       -0.88084
 11
        1.34868
 21
       -0.09774
 31
       -0.87801
 12
        1.63435
 22
       -0.10262
 32
       -0.59804
 13
        1.63435
 23
       -0.10262
 33
       -0.59804
999
Fixed Shading:SHADING GROUP 1 FACE 67
  0
3DFACE
  8
Fixed Shading
 62
  9
 10
        1.13435
 20
       -0.10262
 30
       -0.59804
 11
        0.85151
 21
       -0.09769
 31
       -0.88084
 12
        0.85151
 22
       -0.49762
 32
       -0.88782
 13
        1.13435
 23
       -0.50256
 33
       -0.60502
999
Fixed Shading:Mir-SHADING GROUP 1 FACE 67
  0
3DFACE
  8
Fixed Shading
 62
  9
 10
        1.13435
 20
       -0.50256
 30
       -0.60502
 11
        0.85151
 21
       -0.49762
 31
       -0.88782
 12
        0.85151
 22
       -0.09769
 32
       -0.88084
 13
        1.13435
 23
       -0.10262
 33
       -0.59804
999
Fixed Shading:SHADING GROUP 1 FACE 68
  0
3DFACE
  8
Fixed Shading
 62
  9
 10
        1.13152
 20
       -0.50261
 30
       -0.60219
 11
        0.84868
 21
       -0.49767
 31
       -0.88499
 12
        0.84868
 22
       -0.09774
 32
       -0.87801
 13
        1.13152
 23
       -0.10267
 33
       -0.59521
999
Fixed Shading:Mir-SHADING GROUP 1 FACE 68
  0
3DFACE
  8
Fixed Shading
 62
  9
 10
        1.13152
 20
       -0.10267
 30
       -0.59521
 11
        0.84868
 21
       -0.09774
 31
       -0.87801
 12
        0.84868
 22
       -0.49767
 32
       -0.88499
 13
        1.13152
 23
       -0.50261
 33
       -0.60219
999
Fixed Shading:SHADING GROUP 1 FACE 69
  0
3DFACE
  8
Fixed Shading
 62
  9
 10
        1.13435
 20
       -0.50256
 30
       -0.60502
 11
        1.13152
 21
       -0.10267
 31
       -0.59521
 12
        1.13435
 22
       -0.10262
 32
       -0.59804
 13
        1.13435
 23
       -0.10262
 33
       -0.59804
999
Fixed Shading:Mir-SHADING GROUP 1 FACE 69
  0
3DFACE
  8
Fixed Shading
 62
  9
 10
        1.13435
 20
       -0.10262
 30
       -0.59804
 11
        1.13152
 21
       -0.10267
 31
       -0.59521
 12
        1.13435
 22
       -0.50256
 32
       -0.60502
 13
        1.13435
 23
       -0.50256
 33
       -0.60502
999
Fixed Shading:SHADING GROUP 1 FACE 70
  0
3DFACE
  8
Fixed Shading
 62
  9
 10
        0.85151
 20
       -0.49762
 30
       -0.88782
 11
        1.13152
 21
       -0.50261
 31
       -0.60219
 12
        1.13435
 22
       -0.50256
 32
       -0.60502
 13
        1.13435
 23
       -0.50256
 33
       -0.60502
999
Fixed Shading:Mir-SHADING GROUP 1 FACE 70
  0
3DFACE
  8
Fixed Shading
 62
  9
 10
        1.13435
 20
       -0.50256
 30
       -0.60502
 11
        1.13152
 21
       -0.50261
 31
       -0.60219
 12
        0.85151
 22
       -0.49762
 32
       -0.88782
 13
        0.85151
 23
       -0.49762
 33
       -0.88782
999
Fixed Shading:SHADING GROUP 1 FACE 71
  0
3DFACE
  8
Fixed Shading
 62
  9
 10
        0.85151
 20
       -0.09769
 30
       -0.88084
 11
        0.84868
 21
       -0.49767
 31
       -0.88499
 12
        0.85151
 22
       -0.49762
 32
       -0.88782
 13
        0.85151
 23
       -0.49762
 33
       -0.88782
999
Fixed Shading:Mir-SHADING GROUP 1 FACE 71
  0
3DFACE
  8
Fixed Shading
 62
  9
 10
        0.85151
 20
       -0.49762
 30
       -0.88782
 11
        0.84868
 21
       -0.49767
 31
       -0.88499
 12
        0.85151
 22
       -0.09769
 32
       -0.88084
 13
        0.85151
 23
       -0.09769
 33
       -0.88084
999
Fixed Shading:SHADING GROUP 1 FACE 72
  0
3DFACE
  8
Fixed Shading
 62
  9
 10
        1.13435
 20
       -0.10262
 30
       -0.59804
 11
        0.84868
 21
       -0.09774
 31
       -0.87801
 12
        0.85151
 22
       -0.09769
 32
       -0.88084
 13
        0.85151
 23
       -0.09769
 33
       -0.88084
999
Fixed Shading:Mir-SHADING GROUP 1 FACE 72
  0
3DFACE
  8
Fixed Shading
 62
  9
 10
        0.85151
 20
       -0.09769
 30
       -0.88084
 11
        0.84868
 21
       -0.09774
 31
       -0.87801
 12
        1.13435
 22
       -0.10262
 32
       -0.59804
 13
        1.13435
 23
       -0.10262
 33
       -0.59804
999
Fixed Shading:SHADING GROUP 1 FACE 73
  0
3DFACE
  8
Fixed Shading
 62
  9
 10
        0.63435
 20
       -0.10262
 30
       -0.59804
 11
        0.35151
 21
       -0.09769
 31
       -0.88084
 12
        0.35151
 22
       -0.49762
 32
       -0.88782
 13
        0.63435
 23
       -0.50256
 33
       -0.60502
999
Fixed Shading:Mir-SHADING GROUP 1 FACE 73
  0
3DFACE
  8
Fixed Shading
 62
  9
 10
        0.63435
 20
       -0.50256
 30
       -0.60502
 11
        0.35151
 21
       -0.49762
 31
       -0.88782
 12
        0.35151
 22
       -0.09769
 32
       -0.88084
 13
        0.63435
 23
       -0.10262
 33
       -0.59804
999
Fixed Shading:SHADING GROUP 1 FACE 74
  0
3DFACE
  8
Fixed Shading
 62
  9
 10
        0.63152
 20
       -0.50261
 30
       -0.60219
 11
        0.34868
 21
       -0.49767
 31
       -0.88499
 12
        0.34868
 22
       -0.09774
 32
       -0.87801
 13
        0.63152
 23
       -0.10267
 33
       -0.59521
999
Fixed Shading:Mir-SHADING GROUP 1 FACE 74
  0
3DFACE
  8
Fixed Shading
 62
  9
 10
        0.63152
 20
       -0.10267
 30
       -0.59521
 11
        0.34868
 21
       -0.09774
 31
       -0.87801
 12
        0.34868
 22
       -0.49767
 32
       -0.88499
 13
        0.63152
 23
       -0.50261
 33
       -0.60219
999
Fixed Shading:SHADING GROUP 1 FACE 75
  0
3DFACE
  8
Fixed Shading
 62
  9
 10
        0.63435
 20
       -0.50256
 30
       -0.60502
 11
        0.63152
 21
       -0.10267
 31
       -0.59521
 12
        0.63435
 22
       -0.10262
 32
       -0.59804
 13
        0.63435
 23
       -0.10262
 33
       -0.59804
999
Fixed Shading:Mir-SHADING GROUP 1 FACE 75
  0
3DFACE
  8
Fixed Shading
 62
  9
 10
        0.63435
 20
       -0.10262
 30
       -0.59804
 11
        0.63152
 21
       -0.10267
 31
       -0.59521
 12
        0.63435
 22
       -0.50256
 32
       -0.60502
 13
        0.63435
 23
       -0.50256
 33
       -0.60502
999
Fixed Shading:SHADING GROUP 1 FACE 76
  0
3DFACE
  8
Fixed Shading
 62
  9
 10
        0.35151
 20
       -0.49762
 30
       -0.88782
 11
        0.63152
 21
       -0.50261
 31
       -0.60219
 12
        0.63435
 22
       -0.50256
 32
       -0.60502
 13
        0.63435
 23
       -0.50256
 33
       -0.60502
999
Fixed Shading:Mir-SHADING GROUP 1 FACE 76
  0
3DFACE
  8
Fixed Shading
 62
  9
 10
        0.63435
 20
       -0.50256
 30
       -0.60502
 11
        0.63152
 21
       -0.50261
 31
       -0.60219
 12
        0.35151
 22
       -0.49762
 32
       -0.88782
 13
        0.35151
 23
       -0.49762
 33
       -0.88782
999
Fixed Shading:SHADING GROUP 1 FACE 77
  0
3DFACE
  8
Fixed Shading
 62
  9
 10
        0.35151
 20
       -0.09769
 30
       -0.88084
 11
        0.34868
 21
       -0.49767
 31
       -0.88499
 12
        0.35151
 22
       -0.49762
 32
       -0.88782
 13
        0.35151
 23
       -0.49762
 33
       -0.88782
999
Fixed Shading:Mir-SHADING GROUP 1 FACE 77
  0
3DFACE
  8
Fixed Shading
 62
  9
 10
        0.35151
 20
       -0.49762
 30
       -0.88782
 11
        0.34868
 21
       -0.49767
 31
       -0.88499
 12
        0.35151
 22
       -0.09769
 32
       -0.88084
 13
        0.35151
 23
       -0.09769
 33
       -0.88084
999
Fixed Shading:SHADING GROUP 1 FACE 78
  0
3DFACE
  8
Fixed Shading
 62
  9
 10
        0.63435
 20
       -0.10262
 30
       -0.59804
 11
        0.34868
 21
       -0.09774
 31
       -0.87801
 12
        0.35151
 22
       -0.09769
 32
       -0.88084
 13
        0.35151
 23
       -0.09769
 33
       -0.88084
999
Fixed Shading:Mir-SHADING GROUP 1 FACE 78
  0
3DFACE
  8
Fixed Shading
 62
  9
 10
        0.35151
 20
       -0.09769
 30
       -0.88084
 11
        0.34868
 21
       -0.09774
 31
       -0.87801
 12
        0.63435
 22
       -0.10262
 32
       -0.59804
 13
        0.63435
 23
       -0.10262
 33
       -0.59804
999
Fixed Shading:SHADING GROUP 1 FACE 79
  0
3DFACE
  8
Fixed Shading
 62
  9
 10
        0.13435
 20
       -0.10262
 30
       -0.59804
 11
       -0.14849
 21
       -0.09769
 31
       -0.88084
 12
       -0.14849
 22
       -0.49762
 32
       -0.88782
 13
        0.13435
 23
       -0.50256
 33
       -0.60502
999
Fixed Shading:Mir-SHADING GROUP 1 FACE 79
  0
3DFACE
  8
Fixed Shading
 62
  9
 10
        0.13435
 20
       -0.50256
 30
       -0.60502
 11
       -0.14849
 21
       -0.49762
 31
       -0.88782
 12
       -0.14849
 22
       -0.09769
 32
       -0.88084
 13
        0.13435
 23
       -0.10262
 33
       -0.59804
999
Fixed Shading:SHADING GROUP 1 FACE 80
  0
3DFACE
  8
Fixed Shading
 62
  9
 10
        0.13152
 20
       -0.50261
 30
       -0.60219
 11
       -0.15132
 21
       -0.49767
 31
       -0.88499
 12
       -0.15132
 22
       -0.09774
 32
       -0.87801
 13
        0.13152
 23
       -0.10267
 33
       -0.59521
999
Fixed Shading:Mir-SHADING GROUP 1 FACE 80
  0
3DFACE
  8
Fixed Shading
 62
  9
 10
        0.13152
 20
       -0.10267
 30
       -0.59521
 11
       -0.15132
 21
       -0.09774
 31
       -0.87801
 12
       -0.15132
 22
       -0.49767
 32
       -0.88499
 13
        0.13152
 23
       -0.50261
 33
       -0.60219
999
Fixed Shading:SHADING GROUP 1 FACE 81
  0
3DFACE
  8
Fixed Shading
 62
  9
 10
        0.13435
 20
       -0.50256
 30
       -0.60502
 11
        0.13152
 21
       -0.10267
 31
       -0.59521
 12
        0.13435
 22
       -0.10262
 32
       -0.59804
 13
        0.13435
 23
       -0.10262
 33
       -0.59804
999
Fixed Shading:Mir-SHADING GROUP 1 FACE 81
  0
3DFACE
  8
Fixed Shading
 62
  9
 10
        0.13435
 20
       -0.10262
 30
       -0.59804
 11
        0.13152
 21
       -0.10267
 31
       -0.59521
 12
        0.13435
 22
       -0.50256
 32
       -0.60502
 13
        0.13435
 23
       -0.50256
 33
       -0.60502
999
Fixed Shading:SHADING GROUP 1 FACE 82
  0
3DFACE
  8
Fixed Shading
 62
  9
 10
       -0.14849
 20
       -0.49762
 30
       -0.88782
 11
        0.13152
 21
       -0.50261
 31
       -0.60219
 12
        0.13435
 22
       -0.50256
 32
       -0.60502
 13
        0.13435
 23
       -0.50256
 33
       -0.60502
999
Fixed Shading:Mir-SHADING GROUP 1 FACE 82
  0
3DFACE
  8
Fixed Shading
 62
  9
 10
        0.13435
 20
       -0.50256
 30
       -0.60502
 11
        0.13152
 21
       -0.50261
 31
       -0.60219
 12
       -0.14849
 22
       -0.49762
 32
       -0.88782
 13
       -0.14849
 23
       -0.49762
 33
       -0.88782
999
Fixed Shading:SHADING GROUP 1 FACE 83
  0
3DFACE
  8
Fixed Shading
 62
  9
 10
       -0.14849
 20
       -0.09769
 30
       -0.88084
 11
       -0.15132
 21
       -0.49767
 31
       -0.88499
 12
       -0.14849
 22
       -0.49762
 32
       -0.88782
 13
       -0.14849
 23
       -0.49762
 33
       -0.88782
999
Fixed Shading:Mir-SHADING GROUP 1 FACE 83
  0
3DFACE
  8
Fixed Shading
 62
  9
 10
       -0.14849
 20
       -0.49762
 30
       -0.88782
 11
       -0.15132
 21
       -0.49767
 31
       -0.88499
 12
       -0.14849
 22
       -0.09769
 32
       -0.88084
 13
       -0.14849
 23
       -0.09769
 33
       -0.88084
999
Fixed Shading:SHADING GROUP 1 FACE 84
  0
3DFACE
  8
Fixed Shading
 62
  9
 10
        0.13435
 20
       -0.10262
 30
       -0.59804
 11
       -0.15132
 21
       -0.09774
 31
       -0.87801
 12
       -0.14849
 22
       -0.09769
 32
       -0.88084
 13
       -0.14849
 23
       -0.09769
 33
       -0.88084
999
Fixed Shading:Mir-SHADING GROUP 1 FACE 84
  0
3DFACE
  8
Fixed Shading
 62
  9
 10
       -0.14849
 20
       -0.09769
 30
       -0.88084
 11
       -0.15132
 21
       -0.09774
 31
       -0.87801
 12
        0.13435
 22
       -0.10262
 32
       -0.59804
 13
        0.13435
 23
       -0.10262
 33
       -0.59804
999
Fixed Shading:SHADING GROUP 1 FACE 85
  0
3DFACE
  8
Fixed Shading
 62
  9
 10
       -0.36565
 20
       -0.10262
 30
       -0.59804
 11
       -0.64849
 21
       -0.09769
 31
       -0.88084
 12
       -0.64849
 22
       -0.49762
 32
       -0.88782
 13
       -0.36565
 23
       -0.50256
 33
       -0.60502
999
Fixed Shading:Mir-SHADING GROUP 1 FACE 85
  0
3DFACE
  8
Fixed Shading
 62
  9
 10
       -0.36565
 20
       -0.50256
 30
       -0.60502
 11
       -0.64849
 21
       -0.49762
 31
       -0.88782
 12
       -0.64849
 22
       -0.09769
 32
       -0.88084
 13
       -0.36565
 23
       -0.10262
 33
       -0.59804
999
Fixed Shading:SHADING GROUP 1 FACE 86
  0
3DFACE
  8
Fixed Shading
 62
  9
 10
       -0.36848
 20
       -0.50261
 30
       -0.60219
 11
       -0.65132
 21
       -0.49767
 31
       -0.88499
 12
       -0.65132
 22
       -0.09774
 32
       -0.87801
 13
       -0.36848
 23
       -0.10267
 33
       -0.59521
999
Fixed Shading:Mir-SHADING GROUP 1 FACE 86
  0
3DFACE
  8
Fixed Shading
 62
  9
 10
       -0.36848
 20
       -0.10267
 30
       -0.59521
 11
       -0.65132
 21
       -0.09774
 31
       -0.87801
 12
       -0.65132
 22
       -0.49767
 32
       -0.88499
 13
       -0.36848
 23
       -0.50261
 33
       -0.60219
999
Fixed Shading:SHADING GROUP 1 FACE 87
  0
3DFACE
  8
Fixed Shading
 62
  9
 10
       -0.36565
 20
       -0.50256
 30
       -0.60502
 11
       -0.36848
 21
       -0.10267
 31
       -0.59521
 12
       -0.36565
 22
       -0.10262
 32
       -0.59804
 13
       -0.36565
 23
       -0.10262
 33
       -0.59804
999
Fixed Shading:Mir-SHADING GROUP 1 FACE 87
  0
3DFACE
  8
Fixed Shading
 62
  9
 10
       -0.36565
 20
       -0.10262
 30
       -0.59804
 11
       -0.36848
 21
       -0.10267
 31
       -0.59521
 12
       -0.36565
 22
       -0.50256
 32
       -0.60502
 13
       -0.36565
 23
       -0.50256
 33
       -0.60502
999
Fixed Shading:SHADING GROUP 1 FACE 88
  0
3DFACE
  8
Fixed Shading
 62
  9
 10
       -0.64849
 20
       -0.49762
 30
       -0.88782
 11
       -0.36848
 21
       -0.50261
 31
       -0.60219
 12
       -0.36565
 22
       -0.50256
 32
       -0.60502
 13
       -0.36565
 23
       -0.50256
 33
       -0.60502
999
Fixed Shading:Mir-SHADING GROUP 1 FACE 88
  0
3DFACE
  8
Fixed Shading
 62
  9
 10
       -0.36565
 20
       -0.50256
 30
       -0.60502
 11
       -0.36848
 21
       -0.50261
 31
       -0.60219
 12
       -0.64849
 22
       -0.49762
 32
       -0.88782
 13
       -0.64849
 23
       -0.49762
 33
       -0.88782
999
Fixed Shading:SHADING GROUP 1 FACE 89
  0
3DFACE
  8
Fixed Shading
 62
  9
 10
       -0.64849
 20
       -0.09769
 30
       -0.88084
 11
       -0.65132
 21
       -0.49767
 31
       -0.88499
 12
       -0.64849
 22
       -0.49762
 32
       -0.88782
 13
       -0.64849
 23
       -0.49762
 33
       -0.88782
999
Fixed Shading:Mir-SHADING GROUP 1 FACE 89
  0
3DFACE
  8
Fixed Shading
 62
  9
 10
       -0.64849
 20
       -0.49762
 30
       -0.88782
 11
       -0.65132
 21
       -0.49767
 31
       -0.88499
 12
       -0.64849
 22
       -0.09769
 32
       -0.88084
 13
       -0.64849
 23
       -0.09769
 33
       -0.88084
999
Fixed Shading:SHADING GROUP 1 FACE 90
  0
3DFACE
  8
Fixed Shading
 62
  9
 10
       -0.36565
 20
       -0.10262
 30
       -0.59804
 11
       -0.65132
 21
       -0.09774
 31
       -0.87801
 12
       -0.64849
 22
       -0.09769
 32
       -0.88084
 13
       -0.64849
 23
       -0.09769
 33
       -0.88084
999
Fixed Shading:Mir-SHADING GROUP 1 FACE 90
  0
3DFACE
  8
Fixed Shading
 62
  9
 10
       -0.64849
 20
       -0.09769
 30
       -0.88084
 11
       -0.65132
 21
       -0.09774
 31
       -0.87801
 12
       -0.36565
 22
       -0.10262
 32
       -0.59804
 13
       -0.36565
 23
       -0.10262
 33
       -0.59804
999
Fixed Shading:SHADING GROUP 1 FACE 91
  0
3DFACE
  8
Fixed Shading
 62
  9
 10
       -0.86565
 20
       -0.10262
 30
       -0.59804
 11
       -1.14849
 21
       -0.09769
 31
       -0.88084
 12
       -1.14849
 22
       -0.49762
 32
       -0.88782
 13
       -0.86565
 23
       -0.50256
 33
       -0.60502
999
Fixed Shading:Mir-SHADING GROUP 1 FACE 91
  0
3DFACE
  8
Fixed Shading
 62
  9
 10
       -0.86565
 20
       -0.50256
 30
       -0.60502
 11
       -1.14849
 21
       -0.49762
 31
       -0.88782
 12
       -1.14849
 22
       -0.09769
 32
       -0.88084
 13
       -0.86565
 23
       -0.10262
 33
       -0.59804
999
Fixed Shading:SHADING GROUP 1 FACE 92
  0
3DFACE
  8
Fixed Shading
 62
  9
 10
       -0.86848
 20
       -0.50261
 30
       -0.60219
 11
       -1.15132
 21
       -0.49767
 31
       -0.88499
 12
       -1.15132
 22
       -0.09774
 32
       -0.87801
 13
       -0.86848
 23
       -0.10267
 33
       -0.59521
999
Fixed Shading:Mir-SHADING GROUP 1 FACE 92
  0
3DFACE
  8
Fixed Shading
 62
  9
 10
       -0.86848
 20
       -0.10267
 30
       -0.59521
 11
       -1.15132
 21
       -0.09774
 31
       -0.87801
 12
       -1.15132
 22
       -0.49767
 32
       -0.88499
 13
       -0.86848
 23
       -0.50261
 33
       -0.60219
999
Fixed Shading:SHADING GROUP 1 FACE 93
  0
3DFACE
  8
Fixed Shading
 62
  9
 10
       -0.86565
 20
       -0.50256
 30
       -0.60502
 11
       -0.86848
 21
       -0.10267
 31
       -0.59521
 12
       -0.86565
 22
       -0.10262
 32
       -0.59804
 13
       -0.86565
 23
       -0.10262
 33
       -0.59804
999
Fixed Shading:Mir-SHADING GROUP 1 FACE 93
  0
3DFACE
  8
Fixed Shading
 62
  9
 10
       -0.86565
 20
       -0.10262
 30
       -0.59804
 11
       -0.86848
 21
       -0.10267
 31
       -0.59521
 12
       -0.86565
 22
       -0.50256
 32
       -0.60502
 13
       -0.86565
 23
       -0.50256
 33
       -0.60502
999
Fixed Shading:SHADING GROUP 1 FACE 94
  0
3DFACE
  8
Fixed Shading
 62
  9
 10
       -1.14849
 20
       -0.49762
 30
       -0.88782
 11
       -0.86848
 21
       -0.50261
 31
       -0.60219
 12
       -0.86565
 22
       -0.50256
 32
       -0.60502
 13
       -0.86565
 23
       -0.50256
 33
       -0.60502
999
Fixed Shading:Mir-SHADING GROUP 1 FACE 94
  0
3DFACE
  8
Fixed Shading
 62
  9
 10
       -0.86565
 20
       -0.50256
 30
       -0.60502
 11
       -0.86848
 21
       -0.50261
 31
       -0.60219
 12
       -1.14849
 22
       -0.49762
 32
       -0.88782
 13
       -1.14849
 23
       -0.49762
 33
       -0.88782
999
Fixed Shading:SHADING GROUP 1 FACE 95
  0
3DFACE
  8
Fixed Shading
 62
  9
 10
       -1.14849
 20
       -0.09769
 30
       -0.88084
 11
       -1.15132
 21
       -0.49767
 31
       -0.88499
 12
       -1.14849
 22
       -0.49762
 32
       -0.88782
 13
       -1.14849
 23
       -0.49762
 33
       -0.88782
999
Fixed Shading:Mir-SHADING GROUP 1 FACE 95
  0
3DFACE
  8
Fixed Shading
 62
  9
 10
       -1.14849
 20
       -0.49762
 30
       -0.88782
 11
       -1.15132
 21
       -0.49767
 31
       -0.88499
 12
       -1.14849
 22
       -0.09769
 32
       -0.88084
 13
       -1.14849
 23
       -0.09769
 33
       -0.88084
999
Fixed Shading:SHADING GROUP 1 FACE 96
  0
3DFACE
  8
Fixed Shading
 62
  9
 10
       -0.86565
 20
       -0.10262
 30
       -0.59804
 11
       -1.15132
 21
       -0.09774
 31
       -0.87801
 12
       -1.14849
 22
       -0.09769
 32
       -0.88084
 13
       -1.14849
 23
       -0.09769
 33
       -0.88084
999
Fixed Shading:Mir-SHADING GROUP 1 FACE 96
  0
3DFACE
  8
Fixed Shading
 62
  9
 10
       -1.14849
 20
       -0.09769
 30
       -0.88084
 11
       -1.15132
 21
       -0.09774
 31
       -0.87801
 12
       -0.86565
 22
       -0.10262
 32
       -0.59804
 13
       -0.86565
 23
       -0.10262
 33
       -0.59804
999
Fixed Shading:SHADING GROUP 1 FACE 97
  0
3DFACE
  8
Fixed Shading
 62
  9
 10
       -1.36565
 20
       -0.10262
 30
       -0.59804
 11
       -1.64849
 21
       -0.09769
 31
       -0.88084
 12
       -1.64849
 22
       -0.49762
 32
       -0.88782
 13
       -1.36565
 23
       -0.50256
 33
       -0.60502
999
Fixed Shading:Mir-SHADING GROUP 1 FACE 97
  0
3DFACE
  8
Fixed Shading
 62
  9
 10
       -1.36565
 20
       -0.50256
 30
       -0.60502
 11
       -1.64849
 21
       -0.49762
 31
       -0.88782
 12
       -1.64849
 22
       -0.09769
 32
       -0.88084
 13
       -1.36565
 23
       -0.10262
 33
       -0.59804
999
Fixed Shading:SHADING GROUP 1 FACE 98
  0
3DFACE
  8
Fixed Shading
 62
  9
 10
       -1.36848
 20
       -0.50261
 30
       -0.60219
 11
       -1.65132
 21
       -0.49767
 31
       -0.88499
 12
       -1.65132
 22
       -0.09774
 32
       -0.87801
 13
       -1.36848
 23
       -0.10267
 33
       -0.59521
999
Fixed Shading:Mir-SHADING GROUP 1 FACE 98
  0
3DFACE
  8
Fixed Shading
 62
  9
 10
       -1.36848
 20
       -0.10267
 30
       -0.59521
 11
       -1.65132
 21
       -0.09774
 31
       -0.87801
 12
       -1.65132
 22
       -0.49767
 32
       -0.88499
 13
       -1.36848
 23
       -0.50261
 33
       -0.60219
999
Fixed Shading:SHADING GROUP 1 FACE 99
  0
3DFACE
  8
Fixed Shading
 62
  9
 10
       -1.36565
 20
       -0.50256
 30
       -0.60502
 11
       -1.36848
 21
       -0.10267
 31
       -0.59521
 12
       -1.36565
 22
       -0.10262
 32
       -0.59804
 13
       -1.36565
 23
       -0.10262
 33
       -0.59804
999
Fixed Shading:Mir-SHADING GROUP 1 FACE 99
  0
3DFACE
  8
Fixed Shading
 62
  9
 10
       -1.36565
 20
       -0.10262
 30
       -0.59804
 11
       -1.36848
 21
       -0.10267
 31
       -0.59521
 12
       -1.36565
 22
       -0.50256
 32
       -0.60502
 13
       -1.36565
 23
       -0.50256
 33
       -0.60502
999
Fixed Shading:SHADING GROUP 1 FACE 100
  0
3DFACE
  8
Fixed Shading
 62
  9
 10
       -1.64849
 20
       -0.49762
 30
       -0.88782
 11
       -1.36848
 21
       -0.50261
 31
       -0.60219
 12
       -1.36565
 22
       -0.50256
 32
       -0.60502
 13
       -1.36565
 23
       -0.50256
 33
       -0.60502
999
Fixed Shading:Mir-SHADING GROUP 1 FACE 100
  0
3DFACE
  8
Fixed Shading
 62
  9
 10
       -1.36565
 20
       -0.50256
 30
       -0.60502
 11
       -1.36848
 21
       -0.50261
 31
       -0.60219
 12
       -1.64849
 22
       -0.49762
 32
       -0.88782
 13
       -1.64849
 23
       -0.49762
 33
       -0.88782
999
Fixed Shading:SHADING GROUP 1 FACE 101
  0
3DFACE
  8
Fixed Shading
 62
  9
 10
       -1.64849
 20
       -0.09769
 30
       -0.88084
 11
       -1.65132
 21
       -0.49767
 31
       -0.88499
 12
       -1.64849
 22
       -0.49762
 32
       -0.88782
 13
       -1.64849
 23
       -0.49762
 33
       -0.88782
999
Fixed Shading:Mir-SHADING GROUP 1 FACE 101
  0
3DFACE
  8
Fixed Shading
 62
  9
 10
       -1.64849
 20
       -0.49762
 30
       -0.88782
 11
       -1.65132
 21
       -0.49767
 31
       -0.88499
 12
       -1.64849
 22
       -0.09769
 32
       -0.88084
 13
       -1.64849
 23
       -0.09769
 33
       -0.88084
999
Fixed Shading:SHADING GROUP 1 FACE 102
  0
3DFACE
  8
Fixed Shading
 62
  9
 10
       -1.36565
 20
       -0.10262
 30
       -0.59804
 11
       -1.65132
 21
       -0.09774
 31
       -0.87801
 12
       -1.64849
 22
       -0.09769
 32
       -0.88084
 13
       -1.64849
 23
       -0.09769
 33
       -0.88084
999
Fixed Shading:Mir-SHADING GROUP 1 FACE 102
  0
3DFACE
  8
Fixed Shading
 62
  9
 10
       -1.64849
 20
       -0.09769
 30
       -0.88084
 11
       -1.65132
 21
       -0.09774
 31
       -0.87801
 12
       -1.36565
 22
       -0.10262
 32
       -0.59804
 13
       -1.36565
 23
       -0.10262
 33
       -0.59804
999
Fixed Shading:SHADING GROUP 1 FACE 103
  0
3DFACE
  8
Fixed Shading
 62
  9
 10
       -1.86565
 20
       -0.10262
 30
       -0.59804
 11
       -2.14849
 21
       -0.09769
 31
       -0.88084
 12
       -2.14849
 22
       -0.49762
 32
       -0.88782
 13
       -1.86565
 23
       -0.50256
 33
       -0.60502
999
Fixed Shading:Mir-SHADING GROUP 1 FACE 103
  0
3DFACE
  8
Fixed Shading
 62
  9
 10
       -1.86565
 20
       -0.50256
 30
       -0.60502
 11
       -2.14849
 21
       -0.49762
 31
       -0.88782
 12
       -2.14849
 22
       -0.09769
 32
       -0.88084
 13
       -1.86565
 23
       -0.10262
 33
       -0.59804
999
Fixed Shading:SHADING GROUP 1 FACE 104
  0
3DFACE
  8
Fixed Shading
 62
  9
 10
       -1.86848
 20
       -0.50261
 30
       -0.60219
 11
       -2.15132
 21
       -0.49767
 31
       -0.88499
 12
       -2.15132
 22
       -0.09774
 32
       -0.87801
 13
       -1.86848
 23
       -0.10267
 33
       -0.59521
999
Fixed Shading:Mir-SHADING GROUP 1 FACE 104
  0
3DFACE
  8
Fixed Shading
 62
  9
 10
       -1.86848
 20
       -0.10267
 30
       -0.59521
 11
       -2.15132
 21
       -0.09774
 31
       -0.87801
 12
       -2.15132
 22
       -0.49767
 32
       -0.88499
 13
       -1.86848
 23
       -0.50261
 33
       -0.60219
999
Fixed Shading:SHADING GROUP 1 FACE 105
  0
3DFACE
  8
Fixed Shading
 62
  9
 10
       -1.86565
 20
       -0.50256
 30
       -0.60502
 11
       -1.86848
 21
       -0.10267
 31
       -0.59521
 12
       -1.86565
 22
       -0.10262
 32
       -0.59804
 13
       -1.86565
 23
       -0.10262
 33
       -0.59804
999
Fixed Shading:Mir-SHADING GROUP 1 FACE 105
  0
3DFACE
  8
Fixed Shading
 62
  9
 10
       -1.86565
 20
       -0.10262
 30
       -0.59804
 11
       -1.86848
 21
       -0.10267
 31
       -0.59521
 12
       -1.86565
 22
       -0.50256
 32
       -0.60502
 13
       -1.86565
 23
       -0.50256
 33
       -0.60502
999
Fixed Shading:SHADING GROUP 1 FACE 106
  0
3DFACE
  8
Fixed Shading
 62
  9
 10
       -2.14849
 20
       -0.49762
 30
       -0.88782
 11
       -1.86848
 21
       -0.50261
 31
       -0.60219
 12
       -1.86565
 22
       -0.50256
 32
       -0.60502
 13
       -1.86565
 23
       -0.50256
 33
       -0.60502
999
Fixed Shading:Mir-SHADING GROUP 1 FACE 106
  0
3DFACE
  8
Fixed Shading
 62
  9
 10
       -1.86565
 20
       -0.50256
 30
       -0.60502
 11
       -1.86848
 21
       -0.50261
 31
       -0.60219
 12
       -2.14849
 22
       -0.49762
 32
       -0.88782
 13
       -2.14849
 23
       -0.49762
 33
       -0.88782
999
Fixed Shading:SHADING GROUP 1 FACE 107
  0
3DFACE
  8
Fixed Shading
 62
  9
 10
       -2.14849
 20
       -0.09769
 30
       -0.88084
 11
       -2.15132
 21
       -0.49767
 31
       -0.88499
 12
       -2.14849
 22
       -0.49762
 32
       -0.88782
 13
       -2.14849
 23
       -0.49762
 33
       -0.88782
999
Fixed Shading:Mir-SHADING GROUP 1 FACE 107
  0
3DFACE
  8
Fixed Shading
 62
  9
 10
       -2.14849
 20
       -0.49762
 30
       -0.88782
 11
       -2.15132
 21
       -0.49767
 31
       -0.88499
 12
       -2.14849
 22
       -0.09769
 32
       -0.88084
 13
       -2.14849
 23
       -0.09769
 33
       -0.88084
999
Fixed Shading:SHADING GROUP 1 FACE 108
  0
3DFACE
  8
Fixed Shading
 62
  9
 10
       -1.86565
 20
       -0.10262
 30
       -0.59804
 11
       -2.15132
 21
       -0.09774
 31
       -0.87801
 12
       -2.14849
 22
       -0.09769
 32
       -0.88084
 13
       -2.14849
 23
       -0.09769
 33
       -0.88084
999
Fixed Shading:Mir-SHADING GROUP 1 FACE 108
  0
3DFACE
  8
Fixed Shading
 62
  9
 10
       -2.14849
 20
       -0.09769
 30
       -0.88084
 11
       -2.15132
 21
       -0.09774
 31
       -0.87801
 12
       -1.86565
 22
       -0.10262
 32
       -0.59804
 13
       -1.86565
 23
       -0.10262
 33
       -0.59804
999
Fixed Shading:SHADING GROUP 1 FACE 109
  0
3DFACE
  8
Fixed Shading
 62
  9
 10
        2.13435
 20
       -0.44498
 30
       -0.04744
 11
        1.85151
 21
       -0.16218
 31
       -0.05238
 12
        1.85151
 22
       -0.16916
 32
       -0.45231
 13
        2.13435
 23
       -0.45196
 33
       -0.44738
999
Fixed Shading:Mir-SHADING GROUP 1 FACE 109
  0
3DFACE
  8
Fixed Shading
 62
  9
 10
        2.13435
 20
       -0.45196
 30
       -0.44738
 11
        1.85151
 21
       -0.16916
 31
       -0.45231
 12
        1.85151
 22
       -0.16218
 32
       -0.05238
 13
        2.13435
 23
       -0.44498
 33
       -0.04744
999
Fixed Shading:SHADING GROUP 1 FACE 110
  0
3DFACE
  8
Fixed Shading
 62
  9
 10
        2.13152
 20
       -0.45479
 30
       -0.44733
 11
        1.84868
 21
       -0.17199
 31
       -0.45226
 12
        1.84868
 22
       -0.16501
 32
       -0.05233
 13
        2.13152
 23
       -0.44781
 33
       -0.04739
999
Fixed Shading:Mir-SHADING GROUP 1 FACE 110
  0
3DFACE
  8
Fixed Shading
[...]
 11
       -0.15132
 21
       -0.09774
 31
        1.12199
 12
       -0.14849
 22
       -0.09769
 32
        1.11916
 13
       -0.14849
 23
       -0.09769
 33
        1.11916
999
Fixed Shading:Mir-SHADING GROUP 1 FACE 300
  0
3DFACE
  8
Fixed Shading
 62
  9
 10
       -0.14849
 20
       -0.09769
 30
        1.11916
 11
       -0.15132
 21
       -0.09774
 31
        1.12199
 12
        0.13435
 22
       -0.10262
 32
        1.40196
 13
        0.13435
 23
       -0.10262
 33
        1.40196
999
Fixed Shading:SHADING GROUP 1 FACE 301
  0
3DFACE
  8
Fixed Shading
 62
  9
 10
       -0.36565
 20
       -0.10262
 30
        1.40196
 11
       -0.64849
 21
       -0.09769
 31
        1.11916
 12
       -0.64849
 22
       -0.49762
 32
        1.11218
 13
       -0.36565
 23
       -0.50256
 33
        1.39498
999
Fixed Shading:Mir-SHADING GROUP 1 FACE 301
  0
3DFACE
  8
Fixed Shading
 62
  9
 10
       -0.36565
 20
       -0.50256
 30
        1.39498
 11
       -0.64849
 21
       -0.49762
 31
        1.11218
 12
       -0.64849
 22
       -0.09769
 32
        1.11916
 13
       -0.36565
 23
       -0.10262
 33
        1.40196
999
Fixed Shading:SHADING GROUP 1 FACE 302
  0
3DFACE
  8
Fixed Shading
 62
  9
 10
       -0.36848
 20
       -0.50261
 30
        1.39781
 11
       -0.65132
 21
       -0.49767
 31
        1.11501
 12
       -0.65132
 22
       -0.09774
 32
        1.12199
 13
       -0.36848
 23
       -0.10267
 33
        1.40479
999
Fixed Shading:Mir-SHADING GROUP 1 FACE 302
  0
3DFACE
  8
Fixed Shading
 62
  9
 10
       -0.36848
 20
       -0.10267
 30
        1.40479
 11
       -0.65132
 21
       -0.09774
 31
        1.12199
 12
       -0.65132
 22
       -0.49767
 32
        1.11501
 13
       -0.36848
 23
       -0.50261
 33
        1.39781
999
Fixed Shading:SHADING GROUP 1 FACE 303
  0
3DFACE
  8
Fixed Shading
 62
  9
 10
       -0.36565
 20
       -0.50256
 30
        1.39498
 11
       -0.36848
 21
       -0.10267
 31
        1.40479
 12
       -0.36565
 22
       -0.10262
 32
        1.40196
 13
       -0.36565
 23
       -0.10262
 33
        1.40196
999
Fixed Shading:Mir-SHADING GROUP 1 FACE 303
  0
3DFACE
  8
Fixed Shading
 62
  9
 10
       -0.36565
 20
       -0.10262
 30
        1.40196
 11
       -0.36848
 21
       -0.10267
 31
        1.40479
 12
       -0.36565
 22
       -0.50256
 32
        1.39498
 13
       -0.36565
 23
       -0.50256
 33
        1.39498
999
Fixed Shading:SHADING GROUP 1 FACE 304
  0
3DFACE
  8
Fixed Shading
 62
  9
 10
       -0.64849
 20
       -0.49762
 30
        1.11218
 11
       -0.36848
 21
       -0.50261
 31
        1.39781
 12
       -0.36565
 22
       -0.50256
 32
        1.39498
 13
       -0.36565
 23
       -0.50256
 33
        1.39498
999
Fixed Shading:Mir-SHADING GROUP 1 FACE 304
  0
3DFACE
  8
Fixed Shading
 62
  9
 10
       -0.36565
 20
       -0.50256
 30
        1.39498
 11
       -0.36848
 21
       -0.50261
 31
        1.39781
 12
       -0.64849
 22
       -0.49762
 32
        1.11218
 13
       -0.64849
 23
       -0.49762
 33
        1.11218
999
Fixed Shading:SHADING GROUP 1 FACE 305
  0
3DFACE
  8
Fixed Shading
 62
  9
 10
       -0.64849
 20
       -0.09769
 30
        1.11916
 11
       -0.65132
 21
       -0.49767
 31
        1.11501
 12
       -0.64849
 22
       -0.49762
 32
        1.11218
 13
       -0.64849
 23
       -0.49762
 33
        1.11218
999
Fixed Shading:Mir-SHADING GROUP 1 FACE 305
  0
3DFACE
  8
Fixed Shading
 62
  9
 10
       -0.64849
 20
       -0.49762
 30
        1.11218
 11
       -0.65132
 21
       -0.49767
 31
        1.11501
 12
       -0.64849
 22
       -0.09769
 32
        1.11916
 13
       -0.64849
 23
       -0.09769
 33
        1.11916
999
Fixed Shading:SHADING GROUP 1 FACE 306
  0
3DFACE
  8
Fixed Shading
 62
  9
 10
       -0.36565
 20
       -0.10262
 30
        1.40196
 11
       -0.65132
 21
       -0.09774
 31
        1.12199
 12
       -0.64849
 22
       -0.09769
 32
        1.11916
 13
       -0.64849
 23
       -0.09769
 33
        1.11916
999
Fixed Shading:Mir-SHADING GROUP 1 FACE 306
  0
3DFACE
  8
Fixed Shading
 62
  9
 10
       -0.64849
 20
       -0.09769
 30
        1.11916
 11
       -0.65132
 21
       -0.09774
 31
        1.12199
 12
       -0.36565
 22
       -0.10262
 32
        1.40196
 13
       -0.36565
 23
       -0.10262
 33
        1.40196
999
Fixed Shading:SHADING GROUP 1 FACE 307
  0
3DFACE
  8
Fixed Shading
 62
  9
 10
       -0.86565
 20
       -0.10262
 30
        1.40196
 11
       -1.14849
 21
       -0.09769
 31
        1.11916
 12
       -1.14849
 22
       -0.49762
 32
        1.11218
 13
       -0.86565
 23
       -0.50256
 33
        1.39498
999
Fixed Shading:Mir-SHADING GROUP 1 FACE 307
  0
3DFACE
  8
Fixed Shading
 62
  9
 10
       -0.86565
 20
       -0.50256
 30
        1.39498
 11
       -1.14849
 21
       -0.49762
 31
        1.11218
 12
       -1.14849
 22
       -0.09769
 32
        1.11916
 13
       -0.86565
 23
       -0.10262
 33
        1.40196
999
Fixed Shading:SHADING GROUP 1 FACE 308
  0
3DFACE
  8
Fixed Shading
 62
  9
 10
       -0.86848
 20
       -0.50261
 30
        1.39781
 11
       -1.15132
 21
       -0.49767
 31
        1.11501
 12
       -1.15132
 22
       -0.09774
 32
        1.12199
 13
       -0.86848
 23
       -0.10267
 33
        1.40479
999
Fixed Shading:Mir-SHADING GROUP 1 FACE 308
  0
3DFACE
  8
Fixed Shading
 62
  9
 10
       -0.86848
 20
       -0.10267
 30
        1.40479
 11
       -1.15132
 21
       -0.09774
 31
        1.12199
 12
       -1.15132
 22
       -0.49767
 32
        1.11501
 13
       -0.86848
 23
       -0.50261
 33
        1.39781
999
Fixed Shading:SHADING GROUP 1 FACE 309
  0
3DFACE
  8
Fixed Shading
 62
  9
 10
       -0.86565
 20
       -0.50256
 30
        1.39498
 11
       -0.86848
 21
       -0.10267
 31
        1.40479
 12
       -0.86565
 22
       -0.10262
 32
        1.40196
 13
       -0.86565
 23
       -0.10262
 33
        1.40196
999
Fixed Shading:Mir-SHADING GROUP 1 FACE 309
  0
3DFACE
  8
Fixed Shading
 62
  9
 10
       -0.86565
 20
       -0.10262
 30
        1.40196
 11
       -0.86848
 21
       -0.10267
 31
        1.40479
 12
       -0.86565
 22
       -0.50256
 32
        1.39498
 13
       -0.86565
 23
       -0.50256
 33
        1.39498
999
Fixed Shading:SHADING GROUP 1 FACE 310
  0
3DFACE
  8
Fixed Shading
 62
  9
 10
       -1.14849
 20
       -0.49762
 30
        1.11218
 11
       -0.86848
 21
       -0.50261
 31
        1.39781
 12
       -0.86565
 22
       -0.50256
 32
        1.39498
 13
       -0.86565
 23
       -0.50256
 33
        1.39498
999
Fixed Shading:Mir-SHADING GROUP 1 FACE 310
  0
3DFACE
  8
Fixed Shading
 62
  9
 10
       -0.86565
 20
       -0.50256
 30
        1.39498
 11
       -0.86848
 21
       -0.50261
 31
        1.39781
 12
       -1.14849
 22
       -0.49762
 32
        1.11218
 13
       -1.14849
 23
       -0.49762
 33
        1.11218
999
Fixed Shading:SHADING GROUP 1 FACE 311
  0
3DFACE
  8
Fixed Shading
 62
  9
 10
       -1.14849
 20
       -0.09769
 30
        1.11916
 11
       -1.15132
 21
       -0.49767
 31
        1.11501
 12
       -1.14849
 22
       -0.49762
 32
        1.11218
 13
       -1.14849
 23
       -0.49762
 33
        1.11218
999
Fixed Shading:Mir-SHADING GROUP 1 FACE 311
  0
3DFACE
  8
Fixed Shading
 62
  9
 10
       -1.14849
 20
       -0.49762
 30
        1.11218
 11
       -1.15132
 21
       -0.49767
 31
        1.11501
 12
       -1.14849
 22
       -0.09769
 32
        1.11916
 13
       -1.14849
 23
       -0.09769
 33
        1.11916
999
Fixed Shading:SHADING GROUP 1 FACE 312
  0
3DFACE
  8
Fixed Shading
 62
  9
 10
       -0.86565
 20
       -0.10262
 30
        1.40196
 11
       -1.15132
 21
       -0.09774
 31
        1.12199
 12
       -1.14849
 22
       -0.09769
 32
        1.11916
 13
       -1.14849
 23
       -0.09769
 33
        1.11916
999
Fixed Shading:Mir-SHADING GROUP 1 FACE 312
  0
3DFACE
  8
Fixed Shading
 62
  9
 10
       -1.14849
 20
       -0.09769
 30
        1.11916
 11
       -1.15132
 21
       -0.09774
 31
        1.12199
 12
       -0.86565
 22
       -0.10262
 32
        1.40196
 13
       -0.86565
 23
       -0.10262
 33
        1.40196
999
Fixed Shading:SHADING GROUP 1 FACE 313
  0
3DFACE
  8
Fixed Shading
 62
  9
 10
       -1.36565
 20
       -0.10262
 30
        1.40196
 11
       -1.64849
 21
       -0.09769
 31
        1.11916
 12
       -1.64849
 22
       -0.49762
 32
        1.11218
 13
       -1.36565
 23
       -0.50256
 33
        1.39498
999
Fixed Shading:Mir-SHADING GROUP 1 FACE 313
  0
3DFACE
  8
Fixed Shading
 62
  9
 10
       -1.36565
 20
       -0.50256
 30
        1.39498
 11
       -1.64849
 21
       -0.49762
 31
        1.11218
 12
       -1.64849
 22
       -0.09769
 32
        1.11916
 13
       -1.36565
 23
       -0.10262
 33
        1.40196
999
Fixed Shading:SHADING GROUP 1 FACE 314
  0
3DFACE
  8
Fixed Shading
 62
  9
 10
       -1.36848
 20
       -0.50261
 30
        1.39781
 11
       -1.65132
 21
       -0.49767
 31
        1.11501
 12
       -1.65132
 22
       -0.09774
 32
        1.12199
 13
       -1.36848
 23
       -0.10267
 33
        1.40479
999
Fixed Shading:Mir-SHADING GROUP 1 FACE 314
  0
3DFACE
  8
Fixed Shading
 62
  9
 10
       -1.36848
 20
       -0.10267
 30
        1.40479
 11
       -1.65132
 21
       -0.09774
 31
        1.12199
 12
       -1.65132
 22
       -0.49767
 32
        1.11501
 13
       -1.36848
 23
       -0.50261
 33
        1.39781
999
Fixed Shading:SHADING GROUP 1 FACE 315
  0
3DFACE
  8
Fixed Shading
 62
  9
 10
       -1.36565
 20
       -0.50256
 30
        1.39498
 11
       -1.36848
 21
       -0.10267
 31
        1.40479
 12
       -1.36565
 22
       -0.10262
 32
        1.40196
 13
       -1.36565
 23
       -0.10262
 33
        1.40196
999
Fixed Shading:Mir-SHADING GROUP 1 FACE 315
  0
3DFACE
  8
Fixed Shading
 62
  9
 10
       -1.36565
 20
       -0.10262
 30
        1.40196
 11
       -1.36848
 21
       -0.10267
 31
        1.40479
 12
       -1.36565
 22
       -0.50256
 32
        1.39498
 13
       -1.36565
 23
       -0.50256
 33
        1.39498
999
Fixed Shading:SHADING GROUP 1 FACE 316
  0
3DFACE
  8
Fixed Shading
 62
  9
 10
       -1.64849
 20
       -0.49762
 30
        1.11218
 11
       -1.36848
 21
       -0.50261
 31
        1.39781
 12
       -1.36565
 22
       -0.50256
 32
        1.39498
 13
       -1.36565
 23
       -0.50256
 33
        1.39498
999
Fixed Shading:Mir-SHADING GROUP 1 FACE 316
  0
3DFACE
  8
Fixed Shading
 62
  9
 10
       -1.36565
 20
       -0.50256
 30
        1.39498
 11
       -1.36848
 21
       -0.50261
 31
        1.39781
 12
       -1.64849
 22
       -0.49762
 32
        1.11218
 13
       -1.64849
 23
       -0.49762
 33
        1.11218
999
Fixed Shading:SHADING GROUP 1 FACE 317
  0
3DFACE
  8
Fixed Shading
 62
  9
 10
       -1.64849
 20
       -0.09769
 30
        1.11916
 11
       -1.65132
 21
       -0.49767
 31
        1.11501
 12
       -1.64849
 22
       -0.49762
 32
        1.11218
 13
       -1.64849
 23
       -0.49762
 33
        1.11218
999
Fixed Shading:Mir-SHADING GROUP 1 FACE 317
  0
3DFACE
  8
Fixed Shading
 62
  9
 10
       -1.64849
 20
       -0.49762
 30
        1.11218
 11
       -1.65132
 21
       -0.49767
 31
        1.11501
 12
       -1.64849
 22
       -0.09769
 32
        1.11916
 13
       -1.64849
 23
       -0.09769
 33
        1.11916
999
Fixed Shading:SHADING GROUP 1 FACE 318
  0
3DFACE
  8
Fixed Shading
 62
  9
 10
       -1.36565
 20
       -0.10262
 30
        1.40196
 11
       -1.65132
 21
       -0.09774
 31
        1.12199
 12
       -1.64849
 22
       -0.09769
 32
        1.11916
 13
       -1.64849
 23
       -0.09769
 33
        1.11916
999
Fixed Shading:Mir-SHADING GROUP 1 FACE 318
  0
3DFACE
  8
Fixed Shading
 62
  9
 10
       -1.64849
 20
       -0.09769
 30
        1.11916
 11
       -1.65132
 21
       -0.09774
 31
        1.12199
 12
       -1.36565
 22
       -0.10262
 32
        1.40196
 13
       -1.36565
 23
       -0.10262
 33
        1.40196
999
Fixed Shading:SHADING GROUP 1 FACE 319
  0
3DFACE
  8
Fixed Shading
 62
  9
 10
       -1.86565
 20
       -0.10262
 30
        1.40196
 11
       -2.14849
 21
       -0.09769
 31
        1.11916
 12
       -2.14849
 22
       -0.49762
 32
        1.11218
 13
       -1.86565
 23
       -0.50256
 33
        1.39498
999
Fixed Shading:Mir-SHADING GROUP 1 FACE 319
  0
3DFACE
  8
Fixed Shading
 62
  9
 10
       -1.86565
 20
       -0.50256
 30
        1.39498
 11
       -2.14849
 21
       -0.49762
 31
        1.11218
 12
       -2.14849
 22
       -0.09769
 32
        1.11916
 13
       -1.86565
 23
       -0.10262
 33
        1.40196
999
Fixed Shading:SHADING GROUP 1 FACE 320
  0
3DFACE
  8
Fixed Shading
 62
  9
 10
       -1.86848
 20
       -0.50261
 30
        1.39781
 11
       -2.15132
 21
       -0.49767
 31
        1.11501
 12
       -2.15132
 22
       -0.09774
 32
        1.12199
 13
       -1.86848
 23
       -0.10267
 33
        1.40479
999
Fixed Shading:Mir-SHADING GROUP 1 FACE 320
  0
3DFACE
  8
Fixed Shading
 62
  9
 10
       -1.86848
 20
       -0.10267
 30
        1.40479
 11
       -2.15132
 21
       -0.09774
 31
        1.12199
 12
       -2.15132
 22
       -0.49767
 32
        1.11501
 13
       -1.86848
 23
       -0.50261
 33
        1.39781
999
Fixed Shading:SHADING GROUP 1 FACE 321
  0
3DFACE
  8
Fixed Shading
 62
  9
 10
       -1.86565
 20
       -0.50256
 30
        1.39498
 11
       -1.86848
 21
       -0.10267
 31
        1.40479
 12
       -1.86565
 22
       -0.10262
 32
        1.40196
 13
       -1.86565
 23
       -0.10262
 33
        1.40196
999
Fixed Shading:Mir-SHADING GROUP 1 FACE 321
  0
3DFACE
  8
Fixed Shading
 62
  9
 10
       -1.86565
 20
       -0.10262
 30
        1.40196
 11
       -1.86848
 21
       -0.10267
 31
        1.40479
 12
       -1.86565
 22
       -0.50256
 32
        1.39498
 13
       -1.86565
 23
       -0.50256
 33
        1.39498
999
Fixed Shading:SHADING GROUP 1 FACE 322
  0
3DFACE
  8
Fixed Shading
 62
  9
 10
       -2.14849
 20
       -0.49762
 30
        1.11218
 11
       -1.86848
 21
       -0.50261
 31
        1.39781
 12
       -1.86565
 22
       -0.50256
 32
        1.39498
 13
       -1.86565
 23
       -0.50256
 33
        1.39498
999
Fixed Shading:Mir-SHADING GROUP 1 FACE 322
  0
3DFACE
  8
Fixed Shading
 62
  9
 10
       -1.86565
 20
       -0.50256
 30
        1.39498
 11
       -1.86848
 21
       -0.50261
 31
        1.39781
 12
       -2.14849
 22
       -0.49762
 32
        1.11218
 13
       -2.14849
 23
       -0.49762
 33
        1.11218
999
Fixed Shading:SHADING GROUP 1 FACE 323
  0
3DFACE
  8
Fixed Shading
 62
  9
 10
       -2.14849
 20
       -0.09769
 30
        1.11916
 11
       -2.15132
 21
       -0.49767
 31
        1.11501
 12
       -2.14849
 22
       -0.49762
 32
        1.11218
 13
       -2.14849
 23
       -0.49762
 33
        1.11218
999
Fixed Shading:Mir-SHADING GROUP 1 FACE 323
  0
3DFACE
  8
Fixed Shading
 62
  9
 10
       -2.14849
 20
       -0.49762
 30
        1.11218
 11
       -2.15132
 21
       -0.49767
 31
        1.11501
 12
       -2.14849
 22
       -0.09769
 32
        1.11916
 13
       -2.14849
 23
       -0.09769
 33
        1.11916
999
Fixed Shading:SHADING GROUP 1 FACE 324
  0
3DFACE
  8
Fixed Shading
 62
  9
 10
       -1.86565
 20
       -0.10262
 30
        1.40196
 11
       -2.15132
 21
       -0.09774
 31
        1.12199
 12
       -2.14849
 22
       -0.09769
 32
        1.11916
 13
       -2.14849
 23
       -0.09769
 33
        1.11916
999
Fixed Shading:Mir-SHADING GROUP 1 FACE 324
  0
3DFACE
  8
Fixed Shading
 62
  9
 10
       -2.14849
 20
       -0.09769
 30
        1.11916
 11
       -2.15132
 21
       -0.09774
 31
        1.12199
 12
       -1.86565
 22
       -0.10262
 32
        1.40196
 13
       -1.86565
 23
       -0.10262
 33
        1.40196
999
ZONE1:ZONE1_FACE_1
  0
3DFACE
  8
ZONE1
 62
 43
 10
        2.45000
 20
        7.00000
 30
        1.55000
 11
        2.45000
 21
        7.00000
 31
       -1.55000
 12
       -2.45000
 22
        7.00000
 32
       -1.55000
 13
       -2.45000
 23
        7.00000
 33
        1.55000
999
ZONE1:ZONE1_FACE_2
  0
3DFACE
  8
ZONE1
 62
 43
 10
        2.45000
 20
        0.00000
 30
        1.55000
 11
        2.45000
 21
        0.00000
 31
       -1.55000
 12
        2.45000
 22
        7.00000
 32
       -1.55000
 13
        2.45000
 23
        7.00000
 33
        1.55000
999
ZONE1:ZONE1_FACE_3
  0
3DFACE
  8
ZONE1
 62
 43
 10
       -2.45000
 20
        7.00000
 30
        1.55000
 11
       -2.45000
 21
        7.00000
 31
       -1.55000
 12
       -2.45000
 22
        0.00000
 32
       -1.55000
 13
       -2.45000
 23
        0.00000
 33
        1.55000
999
ZONE1:ZONE1_FACE_6
  0
3DFACE
  8
ZONE1
 62
 43
 10
       -2.45000
 20
        0.00000
 30
        1.55000
 11
       -2.45000
 21
        0.00000
 31
       -1.55000
 12
        2.45000
 22
        0.00000
 32
       -1.55000
 13
        2.45000
 23
        0.00000
 33
        1.55000
999
ZONE1:ZONE1_FACE_6_WINDOW_1
  0
3DFACE
  8
ZONE1
 62
143
 10
       -2.25000
 20
        0.00000
 30
        1.50000
 11
       -2.25000
 21
        0.00000
 31
       -1.50000
 12
        2.25000
 22
        0.00000
 32
       -1.50000
 13
        2.25000
 23
        0.00000
 33
        1.50000
999
ZONE1:ZONE1_FACE_5
  0
3DFACE
  8
ZONE1
 62
  8
 10
        2.45000
 20
        7.00000
 30
       -1.55000
 11
        2.45000
 21
        0.00000
 31
       -1.55000
 12
       -2.45000
 22
        0.00000
 32
       -1.55000
 13
       -2.45000
 23
        7.00000
 33
       -1.55000
999
ZONE1:ZONE1_FACE_4
  0
3DFACE
  8
ZONE1
 62
 15
 10
       -2.45000
 20
        7.00000
 30
        1.55000
 11
       -2.45000
 21
        0.00000
 31
        1.55000
 12
        2.45000
 22
        0.00000
 32
        1.55000
 13
        2.45000
 23
        7.00000
 33
        1.55000
999
ZONE1:DayRefPt:1
  0
CIRCLE
  8
ZONE1
 62
 10
 10
        0.00000
 20
        3.50000
 30
       -0.75000
 40
        0.20000
  0
ENDSEC
  0
EOF
