  0
SECTION
  2
ENTITIES
999
DXF created from EnergyPlus
999
Program Version,EnergyPlus-Windows-OMP-32 7.2.0.006, YMD=2014.05.14 18:25
999
Polygon Action,ThickPolyline
999
Color Scheme,Default
999
Text - True North
  0
TEXT
  8
1
  6
Continuous
 62
  3
 10
      -13.45000
 20
        2.47929
 30
        0.10000
 40
 .25
  1
True North
 41
 0.0
  7
MONOTXT
210
0.0
220
0.0
230
1.0
999
Text - Building Title
  0
TEXT
  8
1
  6
Continuous
 62
  3
 10
      -16.45000
 20
       -1.52071
 30
        0.10000
 40
 .4
  1
Building - BUILDING
 41
 0.0
  7
MONOTXT
210
0.0
220
0.0
230
1.0
999
North Arrow Stem
  0
3DFACE
  8
1
 62
  3
 10
      -12.45000
 20
        2.47929
 30
        0.10000
 11
      -12.45000
 21
        2.47929
 31
        0.00000
 12
      -12.45000
 22
       -0.52071
 32
        0.00000
 13
      -12.45000
 23
       -0.52071
 33
        0.10000
999
North Arrow Head 1
  0
3DFACE
  8
1
 62
  3
 10
      -12.45000
 20
        2.47929
 30
        0.10000
 11
      -12.45000
 21
        2.47929
 31
        0.00000
 12
      -12.95000
 22
        1.61327
 32
        0.00000
 13
      -12.95000
 23
        1.61327
 33
        0.10000
999
North Arrow Head 2
  0
3DFACE
  8
1
 62
  3
 10
      -12.45000
 20
        2.47929
 30
        0.10000
 11
      -12.45000
 21
        2.47929
 31
        0.00000
 12
      -11.95000
 22
        1.61327
 32
        0.00000
 13
      -11.95000
 23
        1.61327
 33
        0.10000
999
North Arrow Side 1
  0
3DFACE
  8
1
 62
  3
 10
      -12.95000
 20
        3.97929
 30
        0.10000
 11
      -12.95000
 21
        3.97929
 31
        0.00000
 12
      -12.95000
 22
        2.97929
 32
        0.00000
 13
      -12.95000
 23
        2.97929
 33
        0.10000
999
North Arrow Side 2
  0
3DFACE
  8
1
 62
  3
 10
      -12.95000
 20
        3.97929
 30
        0.10000
 11
      -12.95000
 21
        3.97929
 31
        0.00000
 12
      -11.95000
 22
        2.97929
 32
        0.00000
 13
      -11.95000
 23
        2.97929
 33
        0.10000
999
North Arrow Side 3
  0
3DFACE
  8
1
 62
  3
 10
      -11.95000
 20
        3.97929
 30
        0.10000
 11
      -11.95000
 21
        3.97929
 31
        0.00000
 12
      -11.95000
 22
        2.97929
 32
        0.00000
 13
      -11.95000
 23
        2.97929
 33
        0.10000
999
Zone Names
999
Zone=1:ZONE1
999
Fixed Shading:SHADING GROUP 1 FACE 1
  0
3DFACE
  8
Fixed Shading
 62
  9
 10
        2.16821
 20
       -0.23541
 30
       -1.03174
 11
        1.82179
 21
       -0.09399
 31
       -1.17317
 12
        1.82179
 22
       -0.37683
 32
       -1.45601
 13
        2.16821
 23
       -0.51826
 33
       -1.31459
999
Fixed Shading:Mir-SHADING GROUP 1 FACE 1
  0
3DFACE
  8
Fixed Shading
 62
  9
 10
        2.16821
 20
       -0.51826
 30
       -1.31459
 11
        1.82179
 21
       -0.37683
 31
       -1.45601
 12
        1.82179
 22
       -0.09399
 32
       -1.17317
 13
        2.16821
 23
       -0.23541
 33
       -1.03174
999
Fixed Shading:SHADING GROUP 1 FACE 2
  0
3DFACE
  8
Fixed Shading
 62
  9
 10
        2.16621
 20
       -0.52071
 30
       -1.31214
 11
        1.81979
 21
       -0.37928
 31
       -1.45356
 12
        1.81979
 22
       -0.09644
 32
       -1.17072
 13
        2.16621
 23
       -0.23786
 33
       -1.02929
999
Fixed Shading:Mir-SHADING GROUP 1 FACE 2
  0
3DFACE
  8
Fixed Shading
 62
  9
 10
        2.16621
 20
       -0.23786
 30
       -1.02929
 11
        1.81979
 21
       -0.09644
 31
       -1.17072
 12
        1.81979
 22
       -0.37928
 32
       -1.45356
 13
        2.16621
 23
       -0.52071
 33
       -1.31214
999
Fixed Shading:SHADING GROUP 1 FACE 3
  0
3DFACE
  8
Fixed Shading
 62
  9
 10
        2.16821
 20
       -0.51826
 30
       -1.31459
 11
        2.16621
 21
       -0.23786
 31
       -1.02929
 12
        2.16821
 22
       -0.23541
 32
       -1.03174
 13
        2.16821
 23
       -0.23541
 33
       -1.03174
999
Fixed Shading:Mir-SHADING GROUP 1 FACE 3
  0
3DFACE
  8
Fixed Shading
 62
  9
 10
        2.16821
 20
       -0.23541
 30
       -1.03174
 11
        2.16621
 21
       -0.23786
 31
       -1.02929
 12
        2.16821
 22
       -0.51826
 32
       -1.31459
 13
        2.16821
 23
       -0.51826
 33
       -1.31459
999
Fixed Shading:SHADING GROUP 1 FACE 4
  0
3DFACE
  8
Fixed Shading
 62
  9
 10
        1.82179
 20
       -0.37683
 30
       -1.45601
 11
        2.16621
 21
       -0.52071
 31
       -1.31214
 12
        2.16821
 22
       -0.51826
 32
       -1.31459
 13
        2.16821
 23
       -0.51826
 33
       -1.31459
999
Fixed Shading:Mir-SHADING GROUP 1 FACE 4
  0
3DFACE
  8
Fixed Shading
 62
  9
 10
        2.16821
 20
       -0.51826
 30
       -1.31459
 11
        2.16621
 21
       -0.52071
 31
       -1.31214
 12
        1.82179
 22
       -0.37683
 32
       -1.45601
 13
        1.82179
 23
       -0.37683
 33
       -1.45601
999
Fixed Shading:SHADING GROUP 1 FACE 5
  0
3DFACE
  8
Fixed Shading
 62
  9
 10
        1.82179
 20
       -0.09399
 30
       -1.17317
 11
        1.81979
 21
       -0.37928
 31
       -1.45356
 12
        1.82179
 22
       -0.37683
 32
       -1.45601
 13
        1.82179
 23
       -0.37683
 33
       -1.45601
999
Fixed Shading:Mir-SHADING GROUP 1 FACE 5
  0
3DFACE
  8
Fixed Shading
 62
  9
 10
        1.82179
 20
       -0.37683
 30
       -1.45601
 11
        1.81979
 21
       -0.37928
 31
       -1.45356
 12
        1.82179
 22
       -0.09399
 32
       -1.17317
 13
        1.82179
 23
       -0.09399
 33
       -1.17317
999
Fixed Shading:SHADING GROUP 1 FACE 6
  0
3DFACE
  8
Fixed Shading
 62
  9
 10
        2.16821
 20
       -0.23541
 30
       -1.03174
 11
        1.81979
 21
       -0.09644
 31
       -1.17072
 12
        1.82179
 22
       -0.09399
 32
       -1.17317
 13
        1.82179
 23
       -0.09399
 33
       -1.17317
999
Fixed Shading:Mir-SHADING GROUP 1 FACE 6
  0
3DFACE
  8
Fixed Shading
 62
  9
 10
        1.82179
 20
       -0.09399
 30
       -1.17317
 11
        1.81979
 21
       -0.09644
 31
       -1.17072
 12
        2.16821
 22
       -0.23541
 32
       -1.03174
 13
        2.16821
 23
       -0.23541
 33
       -1.03174
999
Fixed Shading:SHADING GROUP 1 FACE 7
  0
3DFACE
  8
Fixed Shading
 62
  9
 10
        1.66821
 20
       -0.23541
 30
       -1.03174
 11
        1.32179
 21
       -0.09399
 31
       -1.17317
 12
        1.32179
 22
       -0.37683
 32
       -1.45601
 13
        1.66821
 23
       -0.51826
 33
       -1.31459
999
Fixed Shading:Mir-SHADING GROUP 1 FACE 7
  0
3DFACE
  8
Fixed Shading
 62
  9
 10
        1.66821
 20
       -0.51826
 30
       -1.31459
 11
        1.32179
 21
       -0.37683
 31
       -1.45601
 12
        1.32179
 22
       -0.09399
 32
       -1.17317
 13
        1.66821
 23
       -0.23541
 33
       -1.03174
999
Fixed Shading:SHADING GROUP 1 FACE 8
  0
3DFACE
  8
Fixed Shading
 62
  9
 10
        1.66621
 20
       -0.52071
 30
       -1.31214
 11
        1.31979
 21
       -0.37928
 31
       -1.45356
 12
        1.31979
 22
       -0.09644
 32
       -1.17072
 13
        1.66621
 23
       -0.23786
 33
       -1.02929
999
Fixed Shading:Mir-SHADING GROUP 1 FACE 8
  0
3DFACE
  8
Fixed Shading
 62
  9
 10
        1.66621
 20
       -0.23786
 30
       -1.02929
 11
        1.31979
 21
       -0.09644
 31
       -1.17072
 12
        1.31979
 22
       -0.37928
 32
       -1.45356
 13
        1.66621
 23
       -0.52071
 33
       -1.31214
999
Fixed Shading:SHADING GROUP 1 FACE 9
  0
3DFACE
  8
Fixed Shading
 62
  9
 10
        1.66821
 20
       -0.51826
 30
       -1.31459
 11
        1.66621
 21
       -0.23786
 31
       -1.02929
 12
        1.66821
 22
       -0.23541
 32
       -1.03174
 13
        1.66821
 23
       -0.23541
 33
       -1.03174
999
Fixed Shading:Mir-SHADING GROUP 1 FACE 9
  0
3DFACE
  8
Fixed Shading
 62
  9
 10
        1.66821
 20
       -0.23541
 30
       -1.03174
 11
        1.66621
 21
       -0.23786
 31
       -1.02929
 12
        1.66821
 22
       -0.51826
 32
       -1.31459
 13
        1.66821
 23
       -0.51826
 33
       -1.31459
999
Fixed Shading:SHADING GROUP 1 FACE 10
  0
3DFACE
  8
Fixed Shading
 62
  9
 10
        1.32179
 20
       -0.37683
 30
       -1.45601
 11
        1.66621
 21
       -0.52071
 31
       -1.31214
 12
        1.66821
 22
       -0.51826
 32
       -1.31459
 13
        1.66821
 23
       -0.51826
 33
       -1.31459
999
Fixed Shading:Mir-SHADING GROUP 1 FACE 10
  0
3DFACE
  8
Fixed Shading
 62
  9
 10
        1.66821
 20
       -0.51826
 30
       -1.31459
 11
        1.66621
 21
       -0.52071
 31
       -1.31214
 12
        1.32179
 22
       -0.37683
 32
       -1.45601
 13
        1.32179
 23
       -0.37683
 33
       -1.45601
999
Fixed Shading:SHADING GROUP 1 FACE 11
  0
3DFACE
  8
Fixed Shading
 62
  9
 10
        1.32179
 20
       -0.09399
 30
       -1.17317
 11
        1.31979
 21
       -0.37928
 31
       -1.45356
 12
        1.32179
 22
       -0.37683
 32
       -1.45601
 13
        1.32179
 23
       -0.37683
 33
       -1.45601
999
Fixed Shading:Mir-SHADING GROUP 1 FACE 11
  0
3DFACE
  8
Fixed Shading
 62
  9
 10
        1.32179
 20
       -0.37683
 30
       -1.45601
 11
        1.31979
 21
       -0.37928
 31
       -1.45356
 12
        1.32179
 22
       -0.09399
 32
       -1.17317
 13
        1.32179
 23
       -0.09399
 33
       -1.17317
999
Fixed Shading:SHADING GROUP 1 FACE 12
  0
3DFACE
  8
Fixed Shading
 62
  9
 10
        1.66821
 20
       -0.23541
 30
       -1.03174
 11
        1.31979
 21
       -0.09644
 31
       -1.17072
 12
        1.32179
 22
       -0.09399
 32
       -1.17317
 13
        1.32179
 23
       -0.09399
 33
       -1.17317
999
Fixed Shading:Mir-SHADING GROUP 1 FACE 12
  0
3DFACE
  8
Fixed Shading
 62
  9
 10
        1.32179
 20
       -0.09399
 30
       -1.17317
 11
        1.31979
 21
       -0.09644
 31
       -1.17072
 12
        1.66821
 22
       -0.23541
 32
       -1.03174
 13
        1.66821
 23
       -0.23541
 33
       -1.03174
999
Fixed Shading:SHADING GROUP 1 FACE 13
  0
3DFACE
  8
Fixed Shading
 62
  9
 10
        1.16821
 20
       -0.23541
 30
       -1.03174
 11
        0.82179
 21
       -0.09399
 31
       -1.17317
 12
        0.82179
 22
       -0.37683
 32
       -1.45601
 13
        1.16821
 23
       -0.51826
 33
       -1.31459
999
Fixed Shading:Mir-SHADING GROUP 1 FACE 13
  0
3DFACE
  8
Fixed Shading
 62
  9
 10
        1.16821
 20
       -0.51826
 30
       -1.31459
 11
        0.82179
 21
       -0.37683
 31
       -1.45601
 12
        0.82179
 22
       -0.09399
 32
       -1.17317
 13
        1.16821
 23
       -0.23541
 33
       -1.03174
999
Fixed Shading:SHADING GROUP 1 FACE 14
  0
3DFACE
  8
Fixed Shading
 62
  9
 10
        1.16621
 20
       -0.52071
 30
       -1.31214
 11
        0.81979
 21
       -0.37928
 31
       -1.45356
 12
        0.81979
 22
       -0.09644
 32
       -1.17072
 13
        1.16621
 23
       -0.23786
 33
       -1.02929
999
Fixed Shading:Mir-SHADING GROUP 1 FACE 14
  0
3DFACE
  8
Fixed Shading
 62
  9
 10
        1.16621
 20
       -0.23786
 30
       -1.02929
 11
        0.81979
 21
       -0.09644
 31
       -1.17072
 12
        0.81979
 22
       -0.37928
 32
       -1.45356
 13
        1.16621
 23
       -0.52071
 33
       -1.31214
999
Fixed Shading:SHADING GROUP 1 FACE 15
  0
3DFACE
  8
Fixed Shading
 62
  9
 10
        1.16821
 20
       -0.51826
 30
       -1.31459
 11
        1.16621
 21
       -0.23786
 31
       -1.02929
 12
        1.16821
 22
       -0.23541
 32
       -1.03174
 13
        1.16821
 23
       -0.23541
 33
       -1.03174
999
Fixed Shading:Mir-SHADING GROUP 1 FACE 15
  0
3DFACE
  8
Fixed Shading
 62
  9
 10
        1.16821
 20
       -0.23541
 30
       -1.03174
 11
        1.16621
 21
       -0.23786
 31
       -1.02929
 12
        1.16821
 22
       -0.51826
 32
       -1.31459
 13
        1.16821
 23
       -0.51826
 33
       -1.31459
999
Fixed Shading:SHADING GROUP 1 FACE 16
  0
3DFACE
  8
Fixed Shading
 62
  9
 10
        0.82179
 20
       -0.37683
 30
       -1.45601
 11
        1.16621
 21
       -0.52071
 31
       -1.31214
 12
        1.16821
 22
       -0.51826
 32
       -1.31459
 13
        1.16821
 23
       -0.51826
 33
       -1.31459
999
Fixed Shading:Mir-SHADING GROUP 1 FACE 16
  0
3DFACE
  8
Fixed Shading
 62
  9
 10
        1.16821
 20
       -0.51826
 30
       -1.31459
 11
        1.16621
 21
       -0.52071
 31
       -1.31214
 12
        0.82179
 22
       -0.37683
 32
       -1.45601
 13
        0.82179
 23
       -0.37683
 33
       -1.45601
999
Fixed Shading:SHADING GROUP 1 FACE 17
  0
3DFACE
  8
Fixed Shading
 62
  9
 10
        0.82179
 20
       -0.09399
 30
       -1.17317
 11
        0.81979
 21
       -0.37928
 31
       -1.45356
 12
        0.82179
 22
       -0.37683
 32
       -1.45601
 13
        0.82179
 23
       -0.37683
 33
       -1.45601
999
Fixed Shading:Mir-SHADING GROUP 1 FACE 17
  0
3DFACE
  8
Fixed Shading
 62
  9
 10
        0.82179
 20
       -0.37683
 30
       -1.45601
 11
        0.81979
 21
       -0.37928
 31
       -1.45356
 12
        0.82179
 22
       -0.09399
 32
       -1.17317
 13
        0.82179
 23
       -0.09399
 33
       -1.17317
999
Fixed Shading:SHADING GROUP 1 FACE 18
  0
3DFACE
  8
Fixed Shading
 62
  9
 10
        1.16821
 20
       -0.23541
 30
       -1.03174
 11
        0.81979
 21
       -0.09644
 31
       -1.17072
 12
        0.82179
 22
       -0.09399
 32
       -1.17317
 13
        0.82179
 23
       -0.09399
 33
       -1.17317
999
Fixed Shading:Mir-SHADING GROUP 1 FACE 18
  0
3DFACE
  8
Fixed Shading
 62
  9
 10
        0.82179
 20
       -0.09399
 30
       -1.17317
 11
        0.81979
 21
       -0.09644
 31
       -1.17072
 12
        1.16821
 22
       -0.23541
 32
       -1.03174
 13
        1.16821
 23
       -0.23541
 33
       -1.03174
999
Fixed Shading:SHADING GROUP 1 FACE 19
  0
3DFACE
  8
Fixed Shading
 62
  9
 10
        0.66821
 20
       -0.23541
 30
       -1.03174
 11
        0.32179
 21
       -0.09399
 31
       -1.17317
 12
        0.32179
 22
       -0.37683
 32
       -1.45601
 13
        0.66821
 23
       -0.51826
 33
       -1.31459
999
Fixed Shading:Mir-SHADING GROUP 1 FACE 19
  0
3DFACE
  8
Fixed Shading
 62
  9
 10
        0.66821
 20
       -0.51826
 30
       -1.31459
 11
        0.32179
 21
       -0.37683
 31
       -1.45601
 12
        0.32179
 22
       -0.09399
 32
       -1.17317
 13
        0.66821
 23
       -0.23541
 33
       -1.03174
999
Fixed Shading:SHADING GROUP 1 FACE 20
  0
3DFACE
  8
Fixed Shading
 62
  9
 10
        0.66621
 20
       -0.52071
 30
       -1.31214
 11
        0.31979
 21
       -0.37928
 31
       -1.45356
 12
        0.31979
 22
       -0.09644
 32
       -1.17072
 13
        0.66621
 23
       -0.23786
 33
       -1.02929
999
Fixed Shading:Mir-SHADING GROUP 1 FACE 20
  0
3DFACE
  8
Fixed Shading
 62
  9
 10
        0.66621
 20
       -0.23786
 30
       -1.02929
 11
        0.31979
 21
       -0.09644
 31
       -1.17072
 12
        0.31979
 22
       -0.37928
 32
       -1.45356
 13
        0.66621
 23
       -0.52071
 33
       -1.31214
999
Fixed Shading:SHADING GROUP 1 FACE 21
  0
3DFACE
  8
Fixed Shading
 62
  9
 10
        0.66821
 20
       -0.51826
 30
       -1.31459
 11
        0.66621
 21
       -0.23786
 31
       -1.02929
 12
        0.66821
 22
       -0.23541
 32
       -1.03174
 13
        0.66821
 23
       -0.23541
 33
       -1.03174
999
Fixed Shading:Mir-SHADING GROUP 1 FACE 21
  0
3DFACE
  8
Fixed Shading
 62
  9
 10
        0.66821
 20
       -0.23541
 30
       -1.03174
 11
        0.66621
 21
       -0.23786
 31
       -1.02929
 12
        0.66821
 22
       -0.51826
 32
       -1.31459
 13
        0.66821
 23
       -0.51826
 33
       -1.31459
999
Fixed Shading:SHADING GROUP 1 FACE 22
  0
3DFACE
  8
Fixed Shading
 62
  9
 10
        0.32179
 20
       -0.37683
 30
       -1.45601
 11
        0.66621
 21
       -0.52071
 31
       -1.31214
 12
        0.66821
 22
       -0.51826
 32
       -1.31459
 13
        0.66821
 23
       -0.51826
 33
       -1.31459
999
Fixed Shading:Mir-SHADING GROUP 1 FACE 22
  0
3DFACE
  8
Fixed Shading
 62
  9
 10
        0.66821
 20
       -0.51826
 30
       -1.31459
 11
        0.66621
 21
       -0.52071
 31
       -1.31214
 12
        0.32179
 22
       -0.37683
 32
       -1.45601
 13
        0.32179
 23
       -0.37683
 33
       -1.45601
999
Fixed Shading:SHADING GROUP 1 FACE 23
  0
3DFACE
  8
Fixed Shading
 62
  9
 10
        0.32179
 20
       -0.09399
 30
       -1.17317
 11
        0.31979
 21
       -0.37928
 31
       -1.45356
 12
        0.32179
 22
       -0.37683
 32
       -1.45601
 13
        0.32179
 23
       -0.37683
 33
       -1.45601
999
Fixed Shading:Mir-SHADING GROUP 1 FACE 23
  0
3DFACE
  8
Fixed Shading
 62
  9
 10
        0.32179
 20
       -0.37683
 30
       -1.45601
 11
        0.31979
 21
       -0.37928
 31
       -1.45356
 12
        0.32179
 22
       -0.09399
 32
       -1.17317
 13
        0.32179
 23
       -0.09399
 33
       -1.17317
999
Fixed Shading:SHADING GROUP 1 FACE 24
  0
3DFACE
  8
Fixed Shading
 62
  9
 10
        0.66821
 20
       -0.23541
 30
       -1.03174
 11
        0.31979
 21
       -0.09644
 31
       -1.17072
 12
        0.32179
 22
       -0.09399
 32
       -1.17317
 13
        0.32179
 23
       -0.09399
 33
       -1.17317
999
Fixed Shading:Mir-SHADING GROUP 1 FACE 24
  0
3DFACE
  8
Fixed Shading
 62
  9
 10
        0.32179
 20
       -0.09399
 30
       -1.17317
 11
        0.31979
 21
       -0.09644
 31
       -1.17072
 12
        0.66821
 22
       -0.23541
 32
       -1.03174
 13
        0.66821
 23
       -0.23541
 33
       -1.03174
999
Fixed Shading:SHADING GROUP 1 FACE 25
  0
3DFACE
  8
Fixed Shading
 62
  9
 10
        0.16821
 20
       -0.23541
 30
       -1.03174
 11
       -0.17821
 21
       -0.09399
 31
       -1.17317
 12
       -0.17821
 22
       -0.37683
 32
       -1.45601
 13
        0.16821
 23
       -0.51826
 33
       -1.31459
999
Fixed Shading:Mir-SHADING GROUP 1 FACE 25
  0
3DFACE
  8
Fixed Shading
 62
  9
 10
        0.16821
 20
       -0.51826
 30
       -1.31459
 11
       -0.17821
 21
       -0.37683
 31
       -1.45601
 12
       -0.17821
 22
       -0.09399
 32
       -1.17317
 13
        0.16821
 23
       -0.23541
 33
       -1.03174
999
Fixed Shading:SHADING GROUP 1 FACE 26
  0
3DFACE
  8
Fixed Shading
 62
  9
 10
        0.16621
 20
       -0.52071
 30
       -1.31214
 11
       -0.18021
 21
       -0.37928
 31
       -1.45356
 12
       -0.18021
 22
       -0.09644
 32
       -1.17072
 13
        0.16621
 23
       -0.23786
 33
       -1.02929
999
Fixed Shading:Mir-SHADING GROUP 1 FACE 26
  0
3DFACE
  8
Fixed Shading
 62
  9
 10
        0.16621
 20
       -0.23786
 30
       -1.02929
 11
       -0.18021
 21
       -0.09644
 31
       -1.17072
 12
       -0.18021
 22
       -0.37928
 32
       -1.45356
 13
        0.16621
 23
       -0.52071
 33
       -1.31214
999
Fixed Shading:SHADING GROUP 1 FACE 27
  0
3DFACE
  8
Fixed Shading
 62
  9
 10
        0.16821
 20
       -0.51826
 30
       -1.31459
 11
        0.16621
 21
       -0.23786
 31
       -1.02929
 12
        0.16821
 22
       -0.23541
 32
       -1.03174
 13
        0.16821
 23
       -0.23541
 33
       -1.03174
999
Fixed Shading:Mir-SHADING GROUP 1 FACE 27
  0
3DFACE
  8
Fixed Shading
 62
  9
 10
        0.16821
 20
       -0.23541
 30
       -1.03174
 11
        0.16621
 21
       -0.23786
 31
       -1.02929
 12
        0.16821
 22
       -0.51826
 32
       -1.31459
 13
        0.16821
 23
       -0.51826
 33
       -1.31459
999
Fixed Shading:SHADING GROUP 1 FACE 28
  0
3DFACE
  8
Fixed Shading
 62
  9
 10
       -0.17821
 20
       -0.37683
 30
       -1.45601
 11
        0.16621
 21
       -0.52071
 31
       -1.31214
 12
        0.16821
 22
       -0.51826
 32
       -1.31459
 13
        0.16821
 23
       -0.51826
 33
       -1.31459
999
Fixed Shading:Mir-SHADING GROUP 1 FACE 28
  0
3DFACE
  8
Fixed Shading
 62
  9
 10
        0.16821
 20
       -0.51826
 30
       -1.31459
 11
        0.16621
 21
       -0.52071
 31
       -1.31214
 12
       -0.17821
 22
       -0.37683
 32
       -1.45601
 13
       -0.17821
 23
       -0.37683
 33
       -1.45601
999
Fixed Shading:SHADING GROUP 1 FACE 29
  0
3DFACE
  8
Fixed Shading
 62
  9
 10
       -0.17821
 20
       -0.09399
 30
       -1.17317
 11
       -0.18021
 21
       -0.37928
 31
       -1.45356
 12
       -0.17821
 22
       -0.37683
 32
       -1.45601
 13
       -0.17821
 23
       -0.37683
 33
       -1.45601
999
Fixed Shading:Mir-SHADING GROUP 1 FACE 29
  0
3DFACE
  8
Fixed Shading
 62
  9
 10
       -0.17821
 20
       -0.37683
 30
       -1.45601
 11
       -0.18021
 21
       -0.37928
 31
       -1.45356
 12
       -0.17821
 22
       -0.09399
 32
       -1.17317
 13
       -0.17821
 23
       -0.09399
 33
       -1.17317
999
Fixed Shading:SHADING GROUP 1 FACE 30
  0
3DFACE
  8
Fixed Shading
 62
  9
 10
        0.16821
 20
       -0.23541
 30
       -1.03174
 11
       -0.18021
 21
       -0.09644
 31
       -1.17072
 12
       -0.17821
 22
       -0.09399
 32
       -1.17317
 13
       -0.17821
 23
       -0.09399
 33
       -1.17317
999
Fixed Shading:Mir-SHADING GROUP 1 FACE 30
  0
3DFACE
  8
Fixed Shading
 62
  9
 10
       -0.17821
 20
       -0.09399
 30
       -1.17317
 11
       -0.18021
 21
       -0.09644
 31
       -1.17072
 12
        0.16821
 22
       -0.23541
 32
       -1.03174
 13
        0.16821
 23
       -0.23541
 33
       -1.03174
999
Fixed Shading:SHADING GROUP 1 FACE 31
  0
3DFACE
  8
Fixed Shading
 62
  9
 10
       -0.33179
 20
       -0.23541
 30
       -1.03174
 11
       -0.67821
 21
       -0.09399
 31
       -1.17317
 12
       -0.67821
 22
       -0.37683
 32
       -1.45601
 13
       -0.33179
 23
       -0.51826
 33
       -1.31459
999
Fixed Shading:Mir-SHADING GROUP 1 FACE 31
  0
3DFACE
  8
Fixed Shading
 62
  9
 10
       -0.33179
 20
       -0.51826
 30
       -1.31459
 11
       -0.67821
 21
       -0.37683
 31
       -1.45601
 12
       -0.67821
 22
       -0.09399
 32
       -1.17317
 13
       -0.33179
 23
       -0.23541
 33
       -1.03174
999
Fixed Shading:SHADING GROUP 1 FACE 32
  0
3DFACE
  8
Fixed Shading
 62
  9
 10
       -0.33379
 20
       -0.52071
 30
       -1.31214
 11
       -0.68021
 21
       -0.37928
 31
       -1.45356
 12
       -0.68021
 22
       -0.09644
 32
       -1.17072
 13
       -0.33379
 23
       -0.23786
 33
       -1.02929
999
Fixed Shading:Mir-SHADING GROUP 1 FACE 32
  0
3DFACE
  8
Fixed Shading
 62
  9
 10
       -0.33379
 20
       -0.23786
 30
       -1.02929
 11
       -0.68021
 21
       -0.09644
 31
       -1.17072
 12
       -0.68021
 22
       -0.37928
 32
       -1.45356
 13
       -0.33379
 23
       -0.52071
 33
       -1.31214
999
Fixed Shading:SHADING GROUP 1 FACE 33
  0
3DFACE
  8
Fixed Shading
 62
  9
 10
       -0.33179
 20
       -0.51826
 30
       -1.31459
 11
       -0.33379
 21
       -0.23786
 31
       -1.02929
 12
       -0.33179
 22
       -0.23541
 32
       -1.03174
 13
       -0.33179
 23
       -0.23541
 33
       -1.03174
999
Fixed Shading:Mir-SHADING GROUP 1 FACE 33
  0
3DFACE
  8
Fixed Shading
 62
  9
 10
       -0.33179
 20
       -0.23541
 30
       -1.03174
 11
       -0.33379
 21
       -0.23786
 31
       -1.02929
 12
       -0.33179
 22
       -0.51826
 32
       -1.31459
 13
       -0.33179
 23
       -0.51826
 33
       -1.31459
999
Fixed Shading:SHADING GROUP 1 FACE 34
  0
3DFACE
  8
Fixed Shading
 62
  9
 10
       -0.67821
 20
       -0.37683
 30
       -1.45601
 11
       -0.33379
 21
       -0.52071
 31
       -1.31214
 12
       -0.33179
 22
       -0.51826
 32
       -1.31459
 13
       -0.33179
 23
       -0.51826
 33
       -1.31459
999
Fixed Shading:Mir-SHADING GROUP 1 FACE 34
  0
3DFACE
  8
Fixed Shading
 62
  9
 10
       -0.33179
 20
       -0.51826
 30
       -1.31459
 11
       -0.33379
 21
       -0.52071
 31
       -1.31214
 12
       -0.67821
 22
       -0.37683
 32
       -1.45601
 13
       -0.67821
 23
       -0.37683
 33
       -1.45601
999
Fixed Shading:SHADING GROUP 1 FACE 35
  0
3DFACE
  8
Fixed Shading
 62
  9
 10
       -0.67821
 20
       -0.09399
 30
       -1.17317
 11
       -0.68021
 21
       -0.37928
 31
       -1.45356
 12
       -0.67821
 22
       -0.37683
 32
       -1.45601
 13
       -0.67821
 23
       -0.37683
 33
       -1.45601
999
Fixed Shading:Mir-SHADING GROUP 1 FACE 35
  0
3DFACE
  8
Fixed Shading
 62
  9
 10
       -0.67821
 20
       -0.37683
 30
       -1.45601
 11
       -0.68021
 21
       -0.37928
 31
       -1.45356
 12
       -0.67821
 22
       -0.09399
 32
       -1.17317
 13
       -0.67821
 23
       -0.09399
 33
       -1.17317
999
Fixed Shading:SHADING GROUP 1 FACE 36
  0
3DFACE
  8
Fixed Shading
 62
  9
 10
       -0.33179
 20
       -0.23541
 30
       -1.03174
 11
       -0.68021
 21
       -0.09644
 31
       -1.17072
 12
       -0.67821
 22
       -0.09399
 32
       -1.17317
 13
       -0.67821
 23
       -0.09399
 33
       -1.17317
999
Fixed Shading:Mir-SHADING GROUP 1 FACE 36
  0
3DFACE
  8
Fixed Shading
 62
  9
 10
       -0.67821
 20
       -0.09399
 30
       -1.17317
 11
       -0.68021
 21
       -0.09644
 31
       -1.17072
 12
       -0.33179
 22
       -0.23541
 32
       -1.03174
 13
       -0.33179
 23
       -0.23541
 33
       -1.03174
999
Fixed Shading:SHADING GROUP 1 FACE 37
  0
3DFACE
  8
Fixed Shading
 62
  9
 10
       -0.83179
 20
       -0.23541
 30
       -1.03174
 11
       -1.17821
 21
       -0.09399
 31
       -1.17317
 12
       -1.17821
 22
       -0.37683
 32
       -1.45601
 13
       -0.83179
 23
       -0.51826
 33
       -1.31459
999
Fixed Shading:Mir-SHADING GROUP 1 FACE 37
  0
3DFACE
  8
Fixed Shading
 62
  9
 10
       -0.83179
 20
       -0.51826
 30
       -1.31459
 11
       -1.17821
 21
       -0.37683
 31
       -1.45601
 12
       -1.17821
 22
       -0.09399
 32
       -1.17317
 13
       -0.83179
 23
       -0.23541
 33
       -1.03174
999
Fixed Shading:SHADING GROUP 1 FACE 38
  0
3DFACE
  8
Fixed Shading
 62
  9
 10
       -0.83379
 20
       -0.52071
 30
       -1.31214
 11
       -1.18021
 21
       -0.37928
 31
       -1.45356
 12
       -1.18021
 22
       -0.09644
 32
       -1.17072
 13
       -0.83379
 23
       -0.23786
 33
       -1.02929
999
Fixed Shading:Mir-SHADING GROUP 1 FACE 38
  0
3DFACE
  8
Fixed Shading
 62
  9
 10
       -0.83379
 20
       -0.23786
 30
       -1.02929
 11
       -1.18021
 21
       -0.09644
 31
       -1.17072
 12
       -1.18021
 22
       -0.37928
 32
       -1.45356
 13
       -0.83379
 23
       -0.52071
 33
       -1.31214
999
Fixed Shading:SHADING GROUP 1 FACE 39
  0
3DFACE
  8
Fixed Shading
 62
  9
 10
       -0.83179
 20
       -0.51826
 30
       -1.31459
 11
       -0.83379
 21
       -0.23786
 31
       -1.02929
 12
       -0.83179
 22
       -0.23541
 32
       -1.03174
 13
       -0.83179
 23
       -0.23541
 33
       -1.03174
999
Fixed Shading:Mir-SHADING GROUP 1 FACE 39
  0
3DFACE
  8
Fixed Shading
 62
  9
 10
       -0.83179
 20
       -0.23541
 30
       -1.03174
 11
       -0.83379
 21
       -0.23786
 31
       -1.02929
 12
       -0.83179
 22
       -0.51826
 32
       -1.31459
 13
       -0.83179
 23
       -0.51826
 33
       -1.31459
999
Fixed Shading:SHADING GROUP 1 FACE 40
  0
3DFACE
  8
Fixed Shading
 62
  9
 10
       -1.17821
 20
       -0.37683
 30
       -1.45601
 11
       -0.83379
 21
       -0.52071
 31
       -1.31214
 12
       -0.83179
 22
       -0.51826
 32
       -1.31459
 13
       -0.83179
 23
       -0.51826
 33
       -1.31459
999
Fixed Shading:Mir-SHADING GROUP 1 FACE 40
  0
3DFACE
  8
Fixed Shading
 62
  9
 10
       -0.83179
 20
       -0.51826
 30
       -1.31459
 11
       -0.83379
 21
       -0.52071
 31
       -1.31214
 12
       -1.17821
 22
       -0.37683
 32
       -1.45601
 13
       -1.17821
 23
       -0.37683
 33
       -1.45601
999
Fixed Shading:SHADING GROUP 1 FACE 41
  0
3DFACE
  8
Fixed Shading
 62
  9
 10
       -1.17821
 20
       -0.09399
 30
       -1.17317
 11
       -1.18021
 21
       -0.37928
 31
       -1.45356
 12
       -1.17821
 22
       -0.37683
 32
       -1.45601
 13
       -1.17821
 23
       -0.37683
 33
       -1.45601
999
Fixed Shading:Mir-SHADING GROUP 1 FACE 41
  0
3DFACE
  8
Fixed Shading
 62
  9
 10
       -1.17821
 20
       -0.37683
 30
       -1.45601
 11
       -1.18021
 21
       -0.37928
 31
       -1.45356
 12
       -1.17821
 22
       -0.09399
 32
       -1.17317
 13
       -1.17821
 23
       -0.09399
 33
       -1.17317
999
Fixed Shading:SHADING GROUP 1 FACE 42
  0
3DFACE
  8
Fixed Shading
 62
  9
 10
       -0.83179
 20
       -0.23541
 30
       -1.03174
 11
       -1.18021
 21
       -0.09644
 31
       -1.17072
 12
       -1.17821
 22
       -0.09399
 32
       -1.17317
 13
       -1.17821
 23
       -0.09399
 33
       -1.17317
999
Fixed Shading:Mir-SHADING GROUP 1 FACE 42
  0
3DFACE
  8
Fixed Shading
 62
  9
 10
       -1.17821
 20
       -0.09399
 30
       -1.17317
 11
       -1.18021
 21
       -0.09644
 31
       -1.17072
 12
       -0.83179
 22
       -0.23541
 32
       -1.03174
 13
       -0.83179
 23
       -0.23541
 33
       -1.03174
999
Fixed Shading:SHADING GROUP 1 FACE 43
  0
3DFACE
  8
Fixed Shading
 62
  9
 10
       -1.33179
 20
       -0.23541
 30
       -1.03174
 11
       -1.67821
 21
       -0.09399
 31
       -1.17317
 12
       -1.67821
 22
       -0.37683
 32
       -1.45601
 13
       -1.33179
 23
       -0.51826
 33
       -1.31459
999
Fixed Shading:Mir-SHADING GROUP 1 FACE 43
  0
3DFACE
  8
Fixed Shading
 62
  9
 10
       -1.33179
 20
       -0.51826
 30
       -1.31459
 11
       -1.67821
 21
       -0.37683
 31
       -1.45601
 12
       -1.67821
 22
       -0.09399
 32
       -1.17317
 13
       -1.33179
 23
       -0.23541
 33
       -1.03174
999
Fixed Shading:SHADING GROUP 1 FACE 44
  0
3DFACE
  8
Fixed Shading
 62
  9
 10
       -1.33379
 20
       -0.52071
 30
       -1.31214
 11
       -1.68021
 21
       -0.37928
 31
       -1.45356
 12
       -1.68021
 22
       -0.09644
 32
       -1.17072
 13
       -1.33379
 23
       -0.23786
 33
       -1.02929
999
Fixed Shading:Mir-SHADING GROUP 1 FACE 44
  0
3DFACE
  8
Fixed Shading
 62
  9
 10
       -1.33379
 20
       -0.23786
 30
       -1.02929
 11
       -1.68021
 21
       -0.09644
 31
       -1.17072
 12
       -1.68021
 22
       -0.37928
 32
       -1.45356
 13
       -1.33379
 23
       -0.52071
 33
       -1.31214
999
Fixed Shading:SHADING GROUP 1 FACE 45
  0
3DFACE
  8
Fixed Shading
 62
  9
 10
       -1.33179
 20
       -0.51826
 30
       -1.31459
 11
       -1.33379
 21
       -0.23786
 31
       -1.02929
 12
       -1.33179
 22
       -0.23541
 32
       -1.03174
 13
       -1.33179
 23
       -0.23541
 33
       -1.03174
999
Fixed Shading:Mir-SHADING GROUP 1 FACE 45
  0
3DFACE
  8
Fixed Shading
 62
  9
 10
       -1.33179
 20
       -0.23541
 30
       -1.03174
 11
       -1.33379
 21
       -0.23786
 31
       -1.02929
 12
       -1.33179
 22
       -0.51826
 32
       -1.31459
 13
       -1.33179
 23
       -0.51826
 33
       -1.31459
999
Fixed Shading:SHADING GROUP 1 FACE 46
  0
3DFACE
  8
Fixed Shading
 62
  9
 10
       -1.67821
 20
       -0.37683
 30
       -1.45601
 11
       -1.33379
 21
       -0.52071
 31
       -1.31214
 12
       -1.33179
 22
       -0.51826
 32
       -1.31459
 13
       -1.33179
 23
       -0.51826
 33
       -1.31459
999
Fixed Shading:Mir-SHADING GROUP 1 FACE 46
  0
3DFACE
  8
Fixed Shading
 62
  9
 10
       -1.33179
 20
       -0.51826
 30
       -1.31459
 11
       -1.33379
 21
       -0.52071
 31
       -1.31214
 12
       -1.67821
 22
       -0.37683
 32
       -1.45601
 13
       -1.67821
 23
       -0.37683
 33
       -1.45601
999
Fixed Shading:SHADING GROUP 1 FACE 47
  0
3DFACE
  8
Fixed Shading
 62
  9
 10
       -1.67821
 20
       -0.09399
 30
       -1.17317
 11
       -1.68021
 21
       -0.37928
 31
       -1.45356
 12
       -1.67821
 22
       -0.37683
 32
       -1.45601
 13
       -1.67821
 23
       -0.37683
 33
       -1.45601
999
Fixed Shading:Mir-SHADING GROUP 1 FACE 47
  0
3DFACE
  8
Fixed Shading
 62
  9
 10
       -1.67821
 20
       -0.37683
 30
       -1.45601
 11
       -1.68021
 21
       -0.37928
 31
       -1.45356
 12
       -1.67821
 22
       -0.09399
 32
       -1.17317
 13
       -1.67821
 23
       -0.09399
 33
       -1.17317
999
Fixed Shading:SHADING GROUP 1 FACE 48
  0
3DFACE
  8
Fixed Shading
 62
  9
 10
       -1.33179
 20
       -0.23541
 30
       -1.03174
 11
       -1.68021
 21
       -0.09644
 31
       -1.17072
 12
       -1.67821
 22
       -0.09399
 32
       -1.17317
 13
       -1.67821
 23
       -0.09399
 33
       -1.17317
999
Fixed Shading:Mir-SHADING GROUP 1 FACE 48
  0
3DFACE
  8
Fixed Shading
 62
  9
 10
       -1.67821
 20
       -0.09399
 30
       -1.17317
 11
       -1.68021
 21
       -0.09644
 31
       -1.17072
 12
       -1.33179
 22
       -0.23541
 32
       -1.03174
 13
       -1.33179
 23
       -0.23541
 33
       -1.03174
999
Fixed Shading:SHADING GROUP 1 FACE 49
  0
3DFACE
  8
Fixed Shading
 62
  9
 10
       -1.83179
 20
       -0.23541
 30
       -1.03174
 11
       -2.17821
 21
       -0.09399
 31
       -1.17317
 12
       -2.17821
 22
       -0.37683
 32
       -1.45601
 13
       -1.83179
 23
       -0.51826
 33
       -1.31459
999
Fixed Shading:Mir-SHADING GROUP 1 FACE 49
  0
3DFACE
  8
Fixed Shading
 62
  9
 10
       -1.83179
 20
       -0.51826
 30
       -1.31459
 11
       -2.17821
 21
       -0.37683
 31
       -1.45601
 12
       -2.17821
 22
       -0.09399
 32
       -1.17317
 13
       -1.83179
 23
       -0.23541
 33
       -1.03174
999
Fixed Shading:SHADING GROUP 1 FACE 50
  0
3DFACE
  8
Fixed Shading
 62
  9
 10
       -1.83379
 20
       -0.52071
 30
       -1.31214
 11
       -2.18021
 21
       -0.37928
 31
       -1.45356
 12
       -2.18021
 22
       -0.09644
 32
       -1.17072
 13
       -1.83379
 23
       -0.23786
 33
       -1.02929
999
Fixed Shading:Mir-SHADING GROUP 1 FACE 50
  0
3DFACE
  8
Fixed Shading
 62
  9
 10
       -1.83379
 20
       -0.23786
 30
       -1.02929
 11
       -2.18021
 21
       -0.09644
 31
       -1.17072
 12
       -2.18021
 22
       -0.37928
 32
       -1.45356
 13
       -1.83379
 23
       -0.52071
 33
       -1.31214
999
Fixed Shading:SHADING GROUP 1 FACE 51
  0
3DFACE
  8
Fixed Shading
 62
  9
 10
       -1.83179
 20
       -0.51826
 30
       -1.31459
 11
       -1.83379
 21
       -0.23786
 31
       -1.02929
 12
       -1.83179
 22
       -0.23541
 32
       -1.03174
 13
       -1.83179
 23
       -0.23541
 33
       -1.03174
999
Fixed Shading:Mir-SHADING GROUP 1 FACE 51
  0
3DFACE
  8
Fixed Shading
 62
  9
 10
       -1.83179
 20
       -0.23541
 30
       -1.03174
 11
       -1.83379
 21
       -0.23786
 31
       -1.02929
 12
       -1.83179
 22
       -0.51826
 32
       -1.31459
 13
       -1.83179
 23
       -0.51826
 33
       -1.31459
999
Fixed Shading:SHADING GROUP 1 FACE 52
  0
3DFACE
  8
Fixed Shading
 62
  9
 10
       -2.17821
 20
       -0.37683
 30
       -1.45601
 11
       -1.83379
 21
       -0.52071
 31
       -1.31214
 12
       -1.83179
 22
       -0.51826
 32
       -1.31459
 13
       -1.83179
 23
       -0.51826
 33
       -1.31459
999
Fixed Shading:Mir-SHADING GROUP 1 FACE 52
  0
3DFACE
  8
Fixed Shading
 62
  9
 10
       -1.83179
 20
       -0.51826
 30
       -1.31459
 11
       -1.83379
 21
       -0.52071
 31
       -1.31214
 12
       -2.17821
 22
       -0.37683
 32
       -1.45601
 13
       -2.17821
 23
       -0.37683
 33
       -1.45601
999
Fixed Shading:SHADING GROUP 1 FACE 53
  0
3DFACE
  8
Fixed Shading
 62
  9
 10
       -2.17821
 20
       -0.09399
 30
       -1.17317
 11
       -2.18021
 21
       -0.37928
 31
       -1.45356
 12
       -2.17821
 22
       -0.37683
 32
       -1.45601
 13
       -2.17821
 23
       -0.37683
 33
       -1.45601
999
Fixed Shading:Mir-SHADING GROUP 1 FACE 53
  0
3DFACE
  8
Fixed Shading
 62
  9
 10
       -2.17821
 20
       -0.37683
 30
       -1.45601
 11
       -2.18021
 21
       -0.37928
 31
       -1.45356
 12
       -2.17821
 22
       -0.09399
 32
       -1.17317
 13
       -2.17821
 23
       -0.09399
 33
       -1.17317
999
Fixed Shading:SHADING GROUP 1 FACE 54
  0
3DFACE
  8
Fixed Shading
 62
  9
 10
       -1.83179
 20
       -0.23541
 30
       -1.03174
 11
       -2.18021
 21
       -0.09644
 31
       -1.17072
 12
       -2.17821
 22
       -0.09399
 32
       -1.17317
 13
       -2.17821
 23
       -0.09399
 33
       -1.17317
999
Fixed Shading:Mir-SHADING GROUP 1 FACE 54
  0
3DFACE
  8
Fixed Shading
 62
  9
 10
       -2.17821
 20
       -0.09399
 30
       -1.17317
 11
       -2.18021
 21
       -0.09644
 31
       -1.17072
 12
       -1.83179
 22
       -0.23541
 32
       -1.03174
 13
       -1.83179
 23
       -0.23541
 33
       -1.03174
999
Fixed Shading:SHADING GROUP 1 FACE 55
  0
3DFACE
  8
Fixed Shading
 62
  9
 10
        2.16821
 20
       -0.23541
 30
       -0.53174
 11
        1.82179
 21
       -0.09399
 31
       -0.67317
 12
        1.82179
 22
       -0.37683
 32
       -0.95601
 13
        2.16821
 23
       -0.51826
 33
       -0.81459
999
Fixed Shading:Mir-SHADING GROUP 1 FACE 55
  0
3DFACE
  8
Fixed Shading
 62
  9
 10
        2.16821
 20
       -0.51826
 30
       -0.81459
 11
        1.82179
 21
       -0.37683
 31
       -0.95601
 12
        1.82179
 22
       -0.09399
 32
       -0.67317
 13
        2.16821
 23
       -0.23541
 33
       -0.53174
999
Fixed Shading:SHADING GROUP 1 FACE 56
  0
3DFACE
  8
Fixed Shading
 62
  9
 10
        2.16621
 20
       -0.52071
 30
       -0.81214
 11
        1.81979
 21
       -0.37928
 31
       -0.95356
 12
        1.81979
 22
       -0.09644
 32
       -0.67072
 13
        2.16621
 23
       -0.23786
 33
       -0.52929
999
Fixed Shading:Mir-SHADING GROUP 1 FACE 56
  0
3DFACE
  8
Fixed Shading
 62
  9
 10
        2.16621
 20
       -0.23786
 30
       -0.52929
 11
        1.81979
 21
       -0.09644
 31
       -0.67072
 12
        1.81979
 22
       -0.37928
 32
       -0.95356
 13
        2.16621
 23
       -0.52071
 33
       -0.81214
999
Fixed Shading:SHADING GROUP 1 FACE 57
  0
3DFACE
  8
Fixed Shading
 62
  9
 10
        2.16821
 20
       -0.51826
 30
       -0.81459
 11
        2.16621
 21
       -0.23786
 31
       -0.52929
 12
        2.16821
 22
       -0.23541
 32
       -0.53174
 13
        2.16821
 23
       -0.23541
 33
       -0.53174
999
Fixed Shading:Mir-SHADING GROUP 1 FACE 57
  0
3DFACE
  8
Fixed Shading
 62
  9
 10
        2.16821
 20
       -0.23541
 30
       -0.53174
 11
        2.16621
 21
       -0.23786
 31
       -0.52929
 12
        2.16821
 22
       -0.51826
 32
       -0.81459
 13
        2.16821
 23
       -0.51826
 33
       -0.81459
999
Fixed Shading:SHADING GROUP 1 FACE 58
  0
3DFACE
  8
Fixed Shading
 62
  9
 10
        1.82179
 20
       -0.37683
 30
       -0.95601
 11
        2.16621
 21
       -0.52071
 31
       -0.81214
 12
        2.16821
 22
       -0.51826
 32
       -0.81459
 13
        2.16821
 23
       -0.51826
 33
       -0.81459
999
Fixed Shading:Mir-SHADING GROUP 1 FACE 58
  0
3DFACE
  8
Fixed Shading
 62
  9
 10
        2.16821
 20
       -0.51826
 30
       -0.81459
 11
        2.16621
 21
       -0.52071
 31
       -0.81214
 12
        1.82179
 22
       -0.37683
 32
       -0.95601
 13
        1.82179
 23
       -0.37683
 33
       -0.95601
999
Fixed Shading:SHADING GROUP 1 FACE 59
  0
3DFACE
  8
Fixed Shading
 62
  9
 10
        1.82179
 20
       -0.09399
 30
       -0.67317
 11
        1.81979
 21
       -0.37928
 31
       -0.95356
 12
        1.82179
 22
       -0.37683
 32
       -0.95601
 13
        1.82179
 23
       -0.37683
 33
       -0.95601
999
Fixed Shading:Mir-SHADING GROUP 1 FACE 59
  0
3DFACE
  8
Fixed Shading
 62
  9
 10
        1.82179
 20
       -0.37683
 30
       -0.95601
 11
        1.81979
 21
       -0.37928
 31
       -0.95356
 12
        1.82179
 22
       -0.09399
 32
       -0.67317
 13
        1.82179
 23
       -0.09399
 33
       -0.67317
999
Fixed Shading:SHADING GROUP 1 FACE 60
  0
3DFACE
  8
Fixed Shading
 62
  9
 10
        2.16821
 20
       -0.23541
 30
       -0.53174
 11
        1.81979
 21
       -0.09644
 31
       -0.67072
 12
        1.82179
 22
       -0.09399
 32
       -0.67317
 13
        1.82179
 23
       -0.09399
 33
       -0.67317
999
Fixed Shading:Mir-SHADING GROUP 1 FACE 60
  0
3DFACE
  8
Fixed Shading
 62
  9
 10
        1.82179
 20
       -0.09399
 30
       -0.67317
 11
        1.81979
 21
       -0.09644
 31
       -0.67072
 12
        2.16821
 22
       -0.23541
 32
       -0.53174
 13
        2.16821
 23
       -0.23541
 33
       -0.53174
999
Fixed Shading:SHADING GROUP 1 FACE 61
  0
3DFACE
  8
Fixed Shading
 62
  9
 10
        1.66821
 20
       -0.23541
 30
       -0.53174
 11
        1.32179
 21
       -0.09399
 31
       -0.67317
 12
        1.32179
 22
       -0.37683
 32
       -0.95601
 13
        1.66821
 23
       -0.51826
 33
       -0.81459
999
Fixed Shading:Mir-SHADING GROUP 1 FACE 61
  0
3DFACE
  8
Fixed Shading
 62
  9
 10
        1.66821
 20
       -0.51826
 30
       -0.81459
 11
        1.32179
 21
       -0.37683
 31
       -0.95601
 12
        1.32179
 22
       -0.09399
 32
       -0.67317
 13
        1.66821
 23
       -0.23541
 33
       -0.53174
999
Fixed Shading:SHADING GROUP 1 FACE 62
  0
3DFACE
  8
Fixed Shading
 62
  9
 10
        1.66621
 20
       -0.52071
 30
       -0.81214
 11
        1.31979
 21
       -0.37928
 31
       -0.95356
 12
        1.31979
 22
       -0.09644
 32
       -0.67072
 13
        1.66621
 23
       -0.23786
 33
       -0.52929
999
Fixed Shading:Mir-SHADING GROUP 1 FACE 62
  0
3DFACE
  8
Fixed Shading
 62
  9
 10
        1.66621
 20
       -0.23786
 30
       -0.52929
 11
        1.31979
 21
       -0.09644
 31
       -0.67072
 12
        1.31979
 22
       -0.37928
 32
       -0.95356
 13
        1.66621
 23
       -0.52071
 33
       -0.81214
999
Fixed Shading:SHADING GROUP 1 FACE 63
  0
3DFACE
  8
Fixed Shading
 62
  9
 10
        1.66821
 20
       -0.51826
 30
       -0.81459
 11
        1.66621
 21
       -0.23786
 31
       -0.52929
 12
        1.66821
 22
       -0.23541
 32
       -0.53174
 13
        1.66821
 23
       -0.23541
 33
       -0.53174
999
Fixed Shading:Mir-SHADING GROUP 1 FACE 63
  0
3DFACE
  8
Fixed Shading
 62
  9
 10
        1.66821
 20
       -0.23541
 30
       -0.53174
 11
        1.66621
 21
       -0.23786
 31
       -0.52929
 12
        1.66821
 22
       -0.51826
 32
       -0.81459
 13
        1.66821
 23
       -0.51826
 33
       -0.81459
999
Fixed Shading:SHADING GROUP 1 FACE 64
  0
3DFACE
  8
Fixed Shading
 62
  9
 10
        1.32179
 20
       -0.37683
 30
       -0.95601
 11
        1.66621
 21
       -0.52071
 31
       -0.81214
 12
        1.66821
 22
       -0.51826
 32
       -0.81459
 13
        1.66821
 23
       -0.51826
 33
       -0.81459
999
Fixed Shading:Mir-SHADING GROUP 1 FACE 64
  0
3DFACE
  8
Fixed Shading
 62
  9
 10
        1.66821
 20
       -0.51826
 30
       -0.81459
 11
        1.66621
 21
       -0.52071
 31
       -0.81214
 12
        1.32179
 22
       -0.37683
 32
       -0.95601
 13
        1.32179
 23
       -0.37683
 33
       -0.95601
999
Fixed Shading:SHADING GROUP 1 FACE 65
  0
3DFACE
  8
Fixed Shading
 62
  9
 10
        1.32179
 20
       -0.09399
 30
       -0.67317
 11
        1.31979
 21
       -0.37928
 31
       -0.95356
 12
        1.32179
 22
       -0.37683
 32
       -0.95601
 13
        1.32179
 23
       -0.37683
 33
       -0.95601
999
Fixed Shading:Mir-SHADING GROUP 1 FACE 65
  0
3DFACE
  8
Fixed Shading
 62
  9
 10
        1.32179
 20
       -0.37683
 30
       -0.95601
 11
        1.31979
 21
       -0.37928
 31
       -0.95356
 12
        1.32179
 22
       -0.09399
 32
       -0.67317
 13
        1.32179
 23
       -0.09399
 33
       -0.67317
999
Fixed Shading:SHADING GROUP 1 FACE 66
  0
3DFACE
  8
Fixed Shading
 62
  9
 10
        1.66821
 20
       -0.23541
 30
       -0.53174
 11
        1.31979
 21
       -0.09644
 31
       -0.67072
 12
        1.32179
 22
       -0.09399
 32
       -0.67317
 13
        1.32179
 23
       -0.09399
 33
       -0.67317
999
Fixed Shading:Mir-SHADING GROUP 1 FACE 66
  0
3DFACE
  8
Fixed Shading
 62
  9
 10
        1.32179
 20
       -0.09399
 30
       -0.67317
 11
        1.31979
 21
       -0.09644
 31
       -0.67072
 12
        1.66821
 22
       -0.23541
 32
       -0.53174
 13
        1.66821
 23
       -0.23541
 33
       -0.53174
999
Fixed Shading:SHADING GROUP 1 FACE 67
  0
3DFACE
  8
Fixed Shading
 62
  9
 10
        1.16821
 20
       -0.23541
 30
       -0.53174
 11
        0.82179
 21
       -0.09399
 31
       -0.67317
 12
        0.82179
 22
       -0.37683
 32
       -0.95601
 13
        1.16821
 23
       -0.51826
 33
       -0.81459
999
Fixed Shading:Mir-SHADING GROUP 1 FACE 67
  0
3DFACE
  8
Fixed Shading
 62
  9
 10
        1.16821
 20
       -0.51826
 30
       -0.81459
 11
        0.82179
 21
       -0.37683
 31
       -0.95601
 12
        0.82179
 22
       -0.09399
 32
       -0.67317
 13
        1.16821
 23
       -0.23541
 33
       -0.53174
999
Fixed Shading:SHADING GROUP 1 FACE 68
  0
3DFACE
  8
Fixed Shading
 62
  9
 10
        1.16621
 20
       -0.52071
 30
       -0.81214
 11
        0.81979
 21
       -0.37928
 31
       -0.95356
 12
        0.81979
 22
       -0.09644
 32
       -0.67072
 13
        1.16621
 23
       -0.23786
 33
       -0.52929
999
Fixed Shading:Mir-SHADING GROUP 1 FACE 68
  0
3DFACE
  8
Fixed Shading
 62
  9
 10
        1.16621
 20
       -0.23786
 30
       -0.52929
 11
        0.81979
 21
       -0.09644
 31
       -0.67072
 12
        0.81979
 22
       -0.37928
 32
       -0.95356
 13
        1.16621
 23
       -0.52071
 33
       -0.81214
999
Fixed Shading:SHADING GROUP 1 FACE 69
  0
3DFACE
  8
Fixed Shading
 62
  9
 10
        1.16821
 20
       -0.51826
 30
       -0.81459
 11
        1.16621
 21
       -0.23786
 31
       -0.52929
 12
        1.16821
 22
       -0.23541
 32
       -0.53174
 13
        1.16821
 23
       -0.23541
 33
       -0.53174
999
Fixed Shading:Mir-SHADING GROUP 1 FACE 69
  0
3DFACE
  8
Fixed Shading
 62
  9
 10
        1.16821
 20
       -0.23541
 30
       -0.53174
 11
        1.16621
 21
       -0.23786
 31
       -0.52929
 12
        1.16821
 22
       -0.51826
 32
       -0.81459
 13
        1.16821
 23
       -0.51826
 33
       -0.81459
999
Fixed Shading:SHADING GROUP 1 FACE 70
  0
3DFACE
  8
Fixed Shading
 62
  9
 10
        0.82179
 20
       -0.37683
 30
       -0.95601
 11
        1.16621
 21
       -0.52071
 31
       -0.81214
 12
        1.16821
 22
       -0.51826
 32
       -0.81459
 13
        1.16821
 23
       -0.51826
 33
       -0.81459
999
Fixed Shading:Mir-SHADING GROUP 1 FACE 70
  0
3DFACE
  8
Fixed Shading
 62
  9
 10
        1.16821
 20
       -0.51826
 30
       -0.81459
 11
        1.16621
 21
       -0.52071
 31
       -0.81214
 12
        0.82179
 22
       -0.37683
 32
       -0.95601
 13
        0.82179
 23
       -0.37683
 33
       -0.95601
999
Fixed Shading:SHADING GROUP 1 FACE 71
  0
3DFACE
  8
Fixed Shading
 62
  9
 10
        0.82179
 20
       -0.09399
 30
       -0.67317
 11
        0.81979
 21
       -0.37928
 31
       -0.95356
 12
        0.82179
 22
       -0.37683
 32
       -0.95601
 13
        0.82179
 23
       -0.37683
 33
       -0.95601
999
Fixed Shading:Mir-SHADING GROUP 1 FACE 71
  0
3DFACE
  8
Fixed Shading
 62
  9
 10
        0.82179
 20
       -0.37683
 30
       -0.95601
 11
        0.81979
 21
       -0.37928
 31
       -0.95356
 12
        0.82179
 22
       -0.09399
 32
       -0.67317
 13
        0.82179
 23
       -0.09399
 33
       -0.67317
999
Fixed Shading:SHADING GROUP 1 FACE 72
  0
3DFACE
  8
Fixed Shading
 62
  9
 10
        1.16821
 20
       -0.23541
 30
       -0.53174
 11
        0.81979
 21
       -0.09644
 31
       -0.67072
 12
        0.82179
 22
       -0.09399
 32
       -0.67317
 13
        0.82179
 23
       -0.09399
 33
       -0.67317
999
Fixed Shading:Mir-SHADING GROUP 1 FACE 72
  0
3DFACE
  8
Fixed Shading
 62
  9
 10
        0.82179
 20
       -0.09399
 30
       -0.67317
 11
        0.81979
 21
       -0.09644
 31
       -0.67072
 12
        1.16821
 22
       -0.23541
 32
       -0.53174
 13
        1.16821
 23
       -0.23541
 33
       -0.53174
999
Fixed Shading:SHADING GROUP 1 FACE 73
  0
3DFACE
  8
Fixed Shading
 62
  9
 10
        0.66821
 20
       -0.23541
 30
       -0.53174
 11
        0.32179
 21
       -0.09399
 31
       -0.67317
 12
        0.32179
 22
       -0.37683
 32
       -0.95601
 13
        0.66821
 23
       -0.51826
 33
       -0.81459
999
Fixed Shading:Mir-SHADING GROUP 1 FACE 73
  0
3DFACE
  8
Fixed Shading
 62
  9
 10
        0.66821
 20
       -0.51826
 30
       -0.81459
 11
        0.32179
 21
       -0.37683
 31
       -0.95601
 12
        0.32179
 22
       -0.09399
 32
       -0.67317
 13
        0.66821
 23
       -0.23541
 33
       -0.53174
999
Fixed Shading:SHADING GROUP 1 FACE 74
  0
3DFACE
  8
Fixed Shading
 62
  9
 10
        0.66621
 20
       -0.52071
 30
       -0.81214
 11
        0.31979
 21
       -0.37928
 31
       -0.95356
 12
        0.31979
 22
       -0.09644
 32
       -0.67072
 13
        0.66621
 23
       -0.23786
 33
       -0.52929
999
Fixed Shading:Mir-SHADING GROUP 1 FACE 74
  0
3DFACE
  8
Fixed Shading
 62
  9
 10
        0.66621
 20
       -0.23786
 30
       -0.52929
 11
        0.31979
 21
       -0.09644
 31
       -0.67072
 12
        0.31979
 22
       -0.37928
 32
       -0.95356
 13
        0.66621
 23
       -0.52071
 33
       -0.81214
999
Fixed Shading:SHADING GROUP 1 FACE 75
  0
3DFACE
  8
Fixed Shading
 62
  9
 10
        0.66821
 20
       -0.51826
 30
       -0.81459
 11
        0.66621
 21
       -0.23786
 31
       -0.52929
 12
        0.66821
 22
       -0.23541
 32
       -0.53174
 13
        0.66821
 23
       -0.23541
 33
       -0.53174
999
Fixed Shading:Mir-SHADING GROUP 1 FACE 75
  0
3DFACE
  8
Fixed Shading
 62
  9
 10
        0.66821
 20
       -0.23541
 30
       -0.53174
 11
        0.66621
 21
       -0.23786
 31
       -0.52929
 12
        0.66821
 22
       -0.51826
 32
       -0.81459
 13
        0.66821
 23
       -0.51826
 33
       -0.81459
999
Fixed Shading:SHADING GROUP 1 FACE 76
  0
3DFACE
  8
Fixed Shading
 62
  9
 10
        0.32179
 20
       -0.37683
 30
       -0.95601
 11
        0.66621
 21
       -0.52071
 31
       -0.81214
 12
        0.66821
 22
       -0.51826
 32
       -0.81459
 13
        0.66821
 23
       -0.51826
 33
       -0.81459
999
Fixed Shading:Mir-SHADING GROUP 1 FACE 76
  0
3DFACE
  8
Fixed Shading
 62
  9
 10
        0.66821
 20
       -0.51826
 30
       -0.81459
 11
        0.66621
 21
       -0.52071
 31
       -0.81214
 12
        0.32179
 22
       -0.37683
 32
       -0.95601
 13
        0.32179
 23
       -0.37683
 33
       -0.95601
999
Fixed Shading:SHADING GROUP 1 FACE 77
  0
3DFACE
  8
Fixed Shading
 62
  9
 10
        0.32179
 20
       -0.09399
 30
       -0.67317
 11
        0.31979
 21
       -0.37928
 31
       -0.95356
 12
        0.32179
 22
       -0.37683
 32
       -0.95601
 13
        0.32179
 23
       -0.37683
 33
       -0.95601
999
Fixed Shading:Mir-SHADING GROUP 1 FACE 77
  0
3DFACE
  8
Fixed Shading
 62
  9
 10
        0.32179
 20
       -0.37683
 30
       -0.95601
 11
        0.31979
 21
       -0.37928
 31
       -0.95356
 12
        0.32179
 22
       -0.09399
 32
       -0.67317
 13
        0.32179
 23
       -0.09399
 33
       -0.67317
999
Fixed Shading:SHADING GROUP 1 FACE 78
  0
3DFACE
  8
Fixed Shading
 62
  9
 10
        0.66821
 20
       -0.23541
 30
       -0.53174
 11
        0.31979
 21
       -0.09644
 31
       -0.67072
 12
        0.32179
 22
       -0.09399
 32
       -0.67317
 13
        0.32179
 23
       -0.09399
 33
       -0.67317
999
Fixed Shading:Mir-SHADING GROUP 1 FACE 78
  0
3DFACE
  8
Fixed Shading
 62
  9
 10
        0.32179
 20
       -0.09399
 30
       -0.67317
 11
        0.31979
 21
       -0.09644
 31
       -0.67072
 12
        0.66821
 22
       -0.23541
 32
       -0.53174
 13
        0.66821
 23
       -0.23541
 33
       -0.53174
999
Fixed Shading:SHADING GROUP 1 FACE 79
  0
3DFACE
  8
Fixed Shading
 62
  9
 10
        0.16821
 20
       -0.23541
 30
       -0.53174
 11
       -0.17821
 21
       -0.09399
 31
       -0.67317
 12
       -0.17821
 22
       -0.37683
 32
       -0.95601
 13
        0.16821
 23
       -0.51826
 33
       -0.81459
999
Fixed Shading:Mir-SHADING GROUP 1 FACE 79
  0
3DFACE
  8
Fixed Shading
 62
  9
 10
        0.16821
 20
       -0.51826
 30
       -0.81459
 11
       -0.17821
 21
       -0.37683
 31
       -0.95601
 12
       -0.17821
 22
       -0.09399
 32
       -0.67317
 13
        0.16821
 23
       -0.23541
 33
       -0.53174
999
Fixed Shading:SHADING GROUP 1 FACE 80
  0
3DFACE
  8
Fixed Shading
 62
  9
 10
        0.16621
 20
       -0.52071
 30
       -0.81214
 11
       -0.18021
 21
       -0.37928
 31
       -0.95356
 12
       -0.18021
 22
       -0.09644
 32
       -0.67072
 13
        0.16621
 23
       -0.23786
 33
       -0.52929
999
Fixed Shading:Mir-SHADING GROUP 1 FACE 80
  0
3DFACE
  8
Fixed Shading
 62
  9
 10
        0.16621
 20
       -0.23786
 30
       -0.52929
 11
       -0.18021
 21
       -0.09644
 31
       -0.67072
 12
       -0.18021
 22
       -0.37928
 32
       -0.95356
 13
        0.16621
 23
       -0.52071
 33
       -0.81214
999
Fixed Shading:SHADING GROUP 1 FACE 81
  0
3DFACE
  8
Fixed Shading
 62
  9
 10
        0.16821
 20
       -0.51826
 30
       -0.81459
 11
        0.16621
 21
       -0.23786
 31
       -0.52929
 12
        0.16821
 22
       -0.23541
 32
       -0.53174
 13
        0.16821
 23
       -0.23541
 33
       -0.53174
999
Fixed Shading:Mir-SHADING GROUP 1 FACE 81
  0
3DFACE
  8
Fixed Shading
 62
  9
 10
        0.16821
 20
       -0.23541
 30
       -0.53174
 11
        0.16621
 21
       -0.23786
 31
       -0.52929
 12
        0.16821
 22
       -0.51826
 32
       -0.81459
 13
        0.16821
 23
       -0.51826
 33
       -0.81459
999
Fixed Shading:SHADING GROUP 1 FACE 82
  0
3DFACE
  8
Fixed Shading
 62
  9
 10
       -0.17821
 20
       -0.37683
 30
       -0.95601
 11
        0.16621
 21
       -0.52071
 31
       -0.81214
 12
        0.16821
 22
       -0.51826
 32
       -0.81459
 13
        0.16821
 23
       -0.51826
 33
       -0.81459
999
Fixed Shading:Mir-SHADING GROUP 1 FACE 82
  0
3DFACE
  8
Fixed Shading
 62
  9
 10
        0.16821
 20
       -0.51826
 30
       -0.81459
 11
        0.16621
 21
       -0.52071
 31
       -0.81214
 12
       -0.17821
 22
       -0.37683
 32
       -0.95601
 13
       -0.17821
 23
       -0.37683
 33
       -0.95601
999
Fixed Shading:SHADING GROUP 1 FACE 83
  0
3DFACE
  8
Fixed Shading
 62
  9
 10
       -0.17821
 20
       -0.09399
 30
       -0.67317
 11
       -0.18021
 21
       -0.37928
 31
       -0.95356
 12
       -0.17821
 22
       -0.37683
 32
       -0.95601
 13
       -0.17821
 23
       -0.37683
 33
       -0.95601
999
Fixed Shading:Mir-SHADING GROUP 1 FACE 83
  0
3DFACE
  8
Fixed Shading
 62
  9
 10
       -0.17821
 20
       -0.37683
 30
       -0.95601
 11
       -0.18021
 21
       -0.37928
 31
       -0.95356
 12
       -0.17821
 22
       -0.09399
 32
       -0.67317
 13
       -0.17821
 23
       -0.09399
 33
       -0.67317
999
Fixed Shading:SHADING GROUP 1 FACE 84
  0
3DFACE
  8
Fixed Shading
 62
  9
 10
        0.16821
 20
       -0.23541
 30
       -0.53174
 11
       -0.18021
 21
       -0.09644
 31
       -0.67072
 12
       -0.17821
 22
       -0.09399
 32
       -0.67317
 13
       -0.17821
 23
       -0.09399
 33
       -0.67317
999
Fixed Shading:Mir-SHADING GROUP 1 FACE 84
  0
3DFACE
  8
Fixed Shading
 62
  9
 10
       -0.17821
 20
       -0.09399
 30
       -0.67317
 11
       -0.18021
 21
       -0.09644
 31
       -0.67072
 12
        0.16821
 22
       -0.23541
 32
       -0.53174
 13
        0.16821
 23
       -0.23541
 33
       -0.53174
999
Fixed Shading:SHADING GROUP 1 FACE 85
  0
3DFACE
  8
Fixed Shading
 62
  9
 10
       -0.33179
 20
       -0.23541
 30
       -0.53174
 11
       -0.67821
 21
       -0.09399
 31
       -0.67317
 12
       -0.67821
 22
       -0.37683
 32
       -0.95601
 13
       -0.33179
 23
       -0.51826
 33
       -0.81459
999
Fixed Shading:Mir-SHADING GROUP 1 FACE 85
  0
3DFACE
  8
Fixed Shading
 62
  9
 10
       -0.33179
 20
       -0.51826
 30
       -0.81459
 11
       -0.67821
 21
       -0.37683
 31
       -0.95601
 12
       -0.67821
 22
       -0.09399
 32
       -0.67317
 13
       -0.33179
 23
       -0.23541
 33
       -0.53174
999
Fixed Shading:SHADING GROUP 1 FACE 86
  0
3DFACE
  8
Fixed Shading
 62
  9
 10
       -0.33379
 20
       -0.52071
 30
       -0.81214
 11
       -0.68021
 21
       -0.37928
 31
       -0.95356
 12
       -0.68021
 22
       -0.09644
 32
       -0.67072
 13
       -0.33379
 23
       -0.23786
 33
       -0.52929
999
Fixed Shading:Mir-SHADING GROUP 1 FACE 86
  0
3DFACE
  8
Fixed Shading
 62
  9
 10
       -0.33379
 20
       -0.23786
 30
       -0.52929
 11
       -0.68021
 21
       -0.09644
 31
       -0.67072
 12
       -0.68021
 22
       -0.37928
 32
       -0.95356
 13
       -0.33379
 23
       -0.52071
 33
       -0.81214
999
Fixed Shading:SHADING GROUP 1 FACE 87
  0
3DFACE
  8
Fixed Shading
 62
  9
 10
       -0.33179
 20
       -0.51826
 30
       -0.81459
 11
       -0.33379
 21
       -0.23786
 31
       -0.52929
 12
       -0.33179
 22
       -0.23541
 32
       -0.53174
 13
       -0.33179
 23
       -0.23541
 33
       -0.53174
999
Fixed Shading:Mir-SHADING GROUP 1 FACE 87
  0
3DFACE
  8
Fixed Shading
 62
  9
 10
       -0.33179
 20
       -0.23541
 30
       -0.53174
 11
       -0.33379
 21
       -0.23786
 31
       -0.52929
 12
       -0.33179
 22
       -0.51826
 32
       -0.81459
 13
       -0.33179
 23
       -0.51826
 33
       -0.81459
999
Fixed Shading:SHADING GROUP 1 FACE 88
  0
3DFACE
  8
Fixed Shading
 62
  9
 10
       -0.67821
 20
       -0.37683
 30
       -0.95601
 11
       -0.33379
 21
       -0.52071
 31
       -0.81214
 12
       -0.33179
 22
       -0.51826
 32
       -0.81459
 13
       -0.33179
 23
       -0.51826
 33
       -0.81459
999
Fixed Shading:Mir-SHADING GROUP 1 FACE 88
  0
3DFACE
  8
Fixed Shading
 62
  9
 10
       -0.33179
 20
       -0.51826
 30
       -0.81459
 11
       -0.33379
 21
       -0.52071
 31
       -0.81214
 12
       -0.67821
 22
       -0.37683
 32
       -0.95601
 13
       -0.67821
 23
       -0.37683
 33
       -0.95601
999
Fixed Shading:SHADING GROUP 1 FACE 89
  0
3DFACE
  8
Fixed Shading
 62
  9
 10
       -0.67821
 20
       -0.09399
 30
       -0.67317
 11
       -0.68021
 21
       -0.37928
 31
       -0.95356
 12
       -0.67821
 22
       -0.37683
 32
       -0.95601
 13
       -0.67821
 23
       -0.37683
 33
       -0.95601
999
Fixed Shading:Mir-SHADING GROUP 1 FACE 89
  0
3DFACE
  8
Fixed Shading
 62
  9
 10
       -0.67821
 20
       -0.37683
 30
       -0.95601
 11
       -0.68021
 21
       -0.37928
 31
       -0.95356
 12
       -0.67821
 22
       -0.09399
 32
       -0.67317
 13
       -0.67821
 23
       -0.09399
 33
       -0.67317
999
Fixed Shading:SHADING GROUP 1 FACE 90
  0
3DFACE
  8
Fixed Shading
 62
  9
 10
       -0.33179
 20
       -0.23541
 30
       -0.53174
 11
       -0.68021
 21
       -0.09644
 31
       -0.67072
 12
       -0.67821
 22
       -0.09399
 32
       -0.67317
 13
       -0.67821
 23
       -0.09399
 33
       -0.67317
999
Fixed Shading:Mir-SHADING GROUP 1 FACE 90
  0
3DFACE
  8
Fixed Shading
 62
  9
 10
       -0.67821
 20
       -0.09399
 30
       -0.67317
 11
       -0.68021
 21
       -0.09644
 31
       -0.67072
 12
       -0.33179
 22
       -0.23541
 32
       -0.53174
 13
       -0.33179
 23
       -0.23541
 33
       -0.53174
999
Fixed Shading:SHADING GROUP 1 FACE 91
  0
3DFACE
  8
Fixed Shading
 62
  9
 10
       -0.83179
 20
       -0.23541
 30
       -0.53174
 11
       -1.17821
 21
       -0.09399
 31
       -0.67317
 12
       -1.17821
 22
       -0.37683
 32
       -0.95601
 13
       -0.83179
 23
       -0.51826
 33
       -0.81459
999
Fixed Shading:Mir-SHADING GROUP 1 FACE 91
  0
3DFACE
  8
Fixed Shading
 62
  9
 10
       -0.83179
 20
       -0.51826
 30
       -0.81459
 11
       -1.17821
 21
       -0.37683
 31
       -0.95601
 12
       -1.17821
 22
       -0.09399
 32
       -0.67317
 13
       -0.83179
 23
       -0.23541
 33
       -0.53174
999
Fixed Shading:SHADING GROUP 1 FACE 92
  0
3DFACE
  8
Fixed Shading
 62
  9
 10
       -0.83379
 20
       -0.52071
 30
       -0.81214
 11
       -1.18021
 21
       -0.37928
 31
       -0.95356
 12
       -1.18021
 22
       -0.09644
 32
       -0.67072
 13
       -0.83379
 23
       -0.23786
 33
       -0.52929
999
Fixed Shading:Mir-SHADING GROUP 1 FACE 92
  0
3DFACE
  8
Fixed Shading
 62
  9
 10
       -0.83379
 20
       -0.23786
 30
       -0.52929
 11
       -1.18021
 21
       -0.09644
 31
       -0.67072
 12
       -1.18021
 22
       -0.37928
 32
       -0.95356
 13
       -0.83379
 23
       -0.52071
 33
       -0.81214
999
Fixed Shading:SHADING GROUP 1 FACE 93
  0
3DFACE
  8
Fixed Shading
 62
  9
 10
       -0.83179
 20
       -0.51826
 30
       -0.81459
 11
       -0.83379
 21
       -0.23786
 31
       -0.52929
 12
       -0.83179
 22
       -0.23541
 32
       -0.53174
 13
       -0.83179
 23
       -0.23541
 33
       -0.53174
999
Fixed Shading:Mir-SHADING GROUP 1 FACE 93
  0
3DFACE
  8
Fixed Shading
 62
  9
 10
       -0.83179
 20
       -0.23541
 30
       -0.53174
 11
       -0.83379
 21
       -0.23786
 31
       -0.52929
 12
       -0.83179
 22
       -0.51826
 32
       -0.81459
 13
       -0.83179
 23
       -0.51826
 33
       -0.81459
999
Fixed Shading:SHADING GROUP 1 FACE 94
  0
3DFACE
  8
Fixed Shading
 62
  9
 10
       -1.17821
 20
       -0.37683
 30
       -0.95601
 11
       -0.83379
 21
       -0.52071
 31
       -0.81214
 12
       -0.83179
 22
       -0.51826
 32
       -0.81459
 13
       -0.83179
 23
       -0.51826
 33
       -0.81459
999
Fixed Shading:Mir-SHADING GROUP 1 FACE 94
  0
3DFACE
  8
Fixed Shading
 62
  9
 10
       -0.83179
 20
       -0.51826
 30
       -0.81459
 11
       -0.83379
 21
       -0.52071
 31
       -0.81214
 12
       -1.17821
 22
       -0.37683
 32
       -0.95601
 13
       -1.17821
 23
       -0.37683
 33
       -0.95601
999
Fixed Shading:SHADING GROUP 1 FACE 95
  0
3DFACE
  8
Fixed Shading
 62
  9
 10
       -1.17821
 20
       -0.09399
 30
       -0.67317
 11
       -1.18021
 21
       -0.37928
 31
       -0.95356
 12
       -1.17821
 22
       -0.37683
 32
       -0.95601
 13
       -1.17821
 23
       -0.37683
 33
       -0.95601
999
Fixed Shading:Mir-SHADING GROUP 1 FACE 95
  0
3DFACE
  8
Fixed Shading
 62
  9
 10
       -1.17821
 20
       -0.37683
 30
       -0.95601
 11
       -1.18021
 21
       -0.37928
 31
       -0.95356
 12
       -1.17821
 22
       -0.09399
 32
       -0.67317
 13
       -1.17821
 23
       -0.09399
 33
       -0.67317
999
Fixed Shading:SHADING GROUP 1 FACE 96
  0
3DFACE
  8
Fixed Shading
 62
  9
 10
       -0.83179
 20
       -0.23541
 30
       -0.53174
 11
       -1.18021
 21
       -0.09644
 31
       -0.67072
 12
       -1.17821
 22
       -0.09399
 32
       -0.67317
 13
       -1.17821
 23
       -0.09399
 33
       -0.67317
999
Fixed Shading:Mir-SHADING GROUP 1 FACE 96
  0
3DFACE
  8
Fixed Shading
 62
  9
 10
       -1.17821
 20
       -0.09399
 30
       -0.67317
 11
       -1.18021
 21
       -0.09644
 31
       -0.67072
 12
       -0.83179
 22
       -0.23541
 32
       -0.53174
 13
       -0.83179
 23
       -0.23541
 33
       -0.53174
999
Fixed Shading:SHADING GROUP 1 FACE 97
  0
3DFACE
  8
Fixed Shading
 62
  9
 10
       -1.33179
 20
       -0.23541
 30
       -0.53174
 11
       -1.67821
 21
       -0.09399
 31
       -0.67317
 12
       -1.67821
 22
       -0.37683
 32
       -0.95601
 13
       -1.33179
 23
       -0.51826
 33
       -0.81459
999
Fixed Shading:Mir-SHADING GROUP 1 FACE 97
  0
3DFACE
  8
Fixed Shading
 62
  9
 10
       -1.33179
 20
       -0.51826
 30
       -0.81459
 11
       -1.67821
 21
       -0.37683
 31
       -0.95601
 12
       -1.67821
 22
       -0.09399
 32
       -0.67317
 13
       -1.33179
 23
       -0.23541
 33
       -0.53174
999
Fixed Shading:SHADING GROUP 1 FACE 98
  0
3DFACE
  8
Fixed Shading
 62
  9
 10
       -1.33379
 20
       -0.52071
 30
       -0.81214
 11
       -1.68021
 21
       -0.37928
 31
       -0.95356
 12
       -1.68021
 22
       -0.09644
 32
       -0.67072
 13
       -1.33379
 23
       -0.23786
 33
       -0.52929
999
Fixed Shading:Mir-SHADING GROUP 1 FACE 98
  0
3DFACE
  8
Fixed Shading
 62
  9
 10
       -1.33379
 20
       -0.23786
 30
       -0.52929
 11
       -1.68021
 21
       -0.09644
 31
       -0.67072
 12
       -1.68021
 22
       -0.37928
 32
       -0.95356
 13
       -1.33379
 23
       -0.52071
 33
       -0.81214
999
Fixed Shading:SHADING GROUP 1 FACE 99
  0
3DFACE
  8
Fixed Shading
 62
  9
 10
       -1.33179
 20
       -0.51826
 30
       -0.81459
 11
       -1.33379
 21
       -0.23786
 31
       -0.52929
 12
       -1.33179
 22
       -0.23541
 32
       -0.53174
 13
       -1.33179
 23
       -0.23541
 33
       -0.53174
999
Fixed Shading:Mir-SHADING GROUP 1 FACE 99
  0
3DFACE
  8
Fixed Shading
 62
  9
 10
       -1.33179
 20
       -0.23541
 30
       -0.53174
 11
       -1.33379
 21
       -0.23786
 31
       -0.52929
 12
       -1.33179
 22
       -0.51826
 32
       -0.81459
 13
       -1.33179
 23
       -0.51826
 33
       -0.81459
999
Fixed Shading:SHADING GROUP 1 FACE 100
  0
3DFACE
  8
Fixed Shading
 62
  9
 10
       -1.67821
 20
       -0.37683
 30
       -0.95601
 11
       -1.33379
 21
       -0.52071
 31
       -0.81214
 12
       -1.33179
 22
       -0.51826
 32
       -0.81459
 13
       -1.33179
 23
       -0.51826
 33
       -0.81459
999
Fixed Shading:Mir-SHADING GROUP 1 FACE 100
  0
3DFACE
  8
Fixed Shading
 62
  9
 10
       -1.33179
 20
       -0.51826
 30
       -0.81459
 11
       -1.33379
 21
       -0.52071
 31
       -0.81214
 12
       -1.67821
 22
       -0.37683
 32
       -0.95601
 13
       -1.67821
 23
       -0.37683
 33
       -0.95601
999
Fixed Shading:SHADING GROUP 1 FACE 101
  0
3DFACE
  8
Fixed Shading
 62
  9
 10
       -1.67821
 20
       -0.09399
 30
       -0.67317
 11
       -1.68021
 21
       -0.37928
 31
       -0.95356
 12
       -1.67821
 22
       -0.37683
 32
       -0.95601
 13
       -1.67821
 23
       -0.37683
 33
       -0.95601
999
Fixed Shading:Mir-SHADING GROUP 1 FACE 101
  0
3DFACE
  8
Fixed Shading
 62
  9
 10
       -1.67821
 20
       -0.37683
 30
       -0.95601
 11
       -1.68021
 21
       -0.37928
 31
       -0.95356
 12
       -1.67821
 22
       -0.09399
 32
       -0.67317
 13
       -1.67821
 23
       -0.09399
 33
       -0.67317
999
Fixed Shading:SHADING GROUP 1 FACE 102
  0
3DFACE
  8
Fixed Shading
 62
  9
 10
       -1.33179
 20
       -0.23541
 30
       -0.53174
 11
       -1.68021
 21
       -0.09644
 31
       -0.67072
 12
       -1.67821
 22
       -0.09399
 32
       -0.67317
 13
       -1.67821
 23
       -0.09399
 33
       -0.67317
999
Fixed Shading:Mir-SHADING GROUP 1 FACE 102
  0
3DFACE
  8
Fixed Shading
 62
  9
 10
       -1.67821
 20
       -0.09399
 30
       -0.67317
 11
       -1.68021
 21
       -0.09644
 31
       -0.67072
 12
       -1.33179
 22
       -0.23541
 32
       -0.53174
 13
       -1.33179
 23
       -0.23541
 33
       -0.53174
999
Fixed Shading:SHADING GROUP 1 FACE 103
  0
3DFACE
  8
Fixed Shading
 62
  9
 10
       -1.83179
 20
       -0.23541
 30
       -0.53174
 11
       -2.17821
 21
       -0.09399
 31
       -0.67317
 12
       -2.17821
 22
       -0.37683
 32
       -0.95601
 13
       -1.83179
 23
       -0.51826
 33
       -0.81459
999
Fixed Shading:Mir-SHADING GROUP 1 FACE 103
  0
3DFACE
  8
Fixed Shading
 62
  9
 10
       -1.83179
 20
       -0.51826
 30
       -0.81459
 11
       -2.17821
 21
       -0.37683
 31
       -0.95601
 12
       -2.17821
 22
       -0.09399
 32
       -0.67317
 13
       -1.83179
 23
       -0.23541
 33
       -0.53174
999
Fixed Shading:SHADING GROUP 1 FACE 104
  0
3DFACE
  8
Fixed Shading
 62
  9
 10
       -1.83379
 20
       -0.52071
 30
       -0.81214
 11
       -2.18021
 21
       -0.37928
 31
       -0.95356
 12
       -2.18021
 22
       -0.09644
 32
       -0.67072
 13
       -1.83379
 23
       -0.23786
 33
       -0.52929
999
Fixed Shading:Mir-SHADING GROUP 1 FACE 104
  0
3DFACE
  8
Fixed Shading
 62
  9
 10
       -1.83379
 20
       -0.23786
 30
       -0.52929
 11
       -2.18021
 21
       -0.09644
 31
       -0.67072
 12
       -2.18021
 22
       -0.37928
 32
       -0.95356
 13
       -1.83379
 23
       -0.52071
 33
       -0.81214
999
Fixed Shading:SHADING GROUP 1 FACE 105
  0
3DFACE
  8
Fixed Shading
 62
  9
 10
       -1.83179
 20
       -0.51826
 30
       -0.81459
 11
       -1.83379
 21
       -0.23786
 31
       -0.52929
 12
       -1.83179
 22
       -0.23541
 32
       -0.53174
 13
       -1.83179
 23
       -0.23541
 33
       -0.53174
999
Fixed Shading:Mir-SHADING GROUP 1 FACE 105
  0
3DFACE
  8
Fixed Shading
 62
  9
 10
       -1.83179
 20
       -0.23541
 30
       -0.53174
 11
       -1.83379
 21
       -0.23786
 31
       -0.52929
 12
       -1.83179
 22
       -0.51826
 32
       -0.81459
 13
       -1.83179
 23
       -0.51826
 33
       -0.81459
999
Fixed Shading:SHADING GROUP 1 FACE 106
  0
3DFACE
  8
Fixed Shading
 62
  9
 10
       -2.17821
 20
       -0.37683
 30
       -0.95601
 11
       -1.83379
 21
       -0.52071
 31
       -0.81214
 12
       -1.83179
 22
       -0.51826
 32
       -0.81459
 13
       -1.83179
 23
       -0.51826
 33
       -0.81459
999
Fixed Shading:Mir-SHADING GROUP 1 FACE 106
  0
3DFACE
  8
Fixed Shading
 62
  9
 10
       -1.83179
 20
       -0.51826
 30
       -0.81459
 11
       -1.83379
 21
       -0.52071
 31
       -0.81214
 12
       -2.17821
 22
       -0.37683
 32
       -0.95601
 13
       -2.17821
 23
       -0.37683
 33
       -0.95601
999
Fixed Shading:SHADING GROUP 1 FACE 107
  0
3DFACE
  8
Fixed Shading
 62
  9
 10
       -2.17821
 20
       -0.09399
 30
       -0.67317
 11
       -2.18021
 21
       -0.37928
 31
       -0.95356
 12
       -2.17821
 22
       -0.37683
 32
       -0.95601
 13
       -2.17821
 23
       -0.37683
 33
       -0.95601
999
Fixed Shading:Mir-SHADING GROUP 1 FACE 107
  0
3DFACE
  8
Fixed Shading
 62
  9
 10
       -2.17821
 20
       -0.37683
 30
       -0.95601
 11
       -2.18021
 21
       -0.37928
 31
       -0.95356
 12
       -2.17821
 22
       -0.09399
 32
       -0.67317
 13
       -2.17821
 23
       -0.09399
 33
       -0.67317
999
Fixed Shading:SHADING GROUP 1 FACE 108
  0
3DFACE
  8
Fixed Shading
 62
  9
 10
       -1.83179
 20
       -0.23541
 30
       -0.53174
 11
       -2.18021
 21
       -0.09644
 31
       -0.67072
 12
       -2.17821
 22
       -0.09399
 32
       -0.67317
 13
       -2.17821
 23
       -0.09399
 33
       -0.67317
999
Fixed Shading:Mir-SHADING GROUP 1 FACE 108
  0
3DFACE
  8
Fixed Shading
 62
  9
 10
       -2.17821
 20
       -0.09399
 30
       -0.67317
 11
       -2.18021
 21
       -0.09644
 31
       -0.67072
 12
       -1.83179
 22
       -0.23541
 32
       -0.53174
 13
       -1.83179
 23
       -0.23541
 33
       -0.53174
999
Fixed Shading:SHADING GROUP 1 FACE 109
  0
3DFACE
  8
Fixed Shading
 62
  9
 10
        2.16821
 20
       -0.23541
 30
       -0.03174
 11
        1.82179
 21
       -0.09399
 31
       -0.17317
 12
        1.82179
 22
       -0.37683
 32
       -0.45601
 13
        2.16821
 23
       -0.51826
 33
       -0.31459
999
Fixed Shading:Mir-SHADING GROUP 1 FACE 109
  0
3DFACE
  8
Fixed Shading
 62
  9
 10
        2.16821
 20
       -0.51826
 30
       -0.31459
 11
        1.82179
 21
       -0.37683
 31
       -0.45601
 12
        1.82179
 22
       -0.09399
 32
       -0.17317
 13
        2.16821
 23
       -0.23541
 33
       -0.03174
999
Fixed Shading:SHADING GROUP 1 FACE 110
  0
3DFACE
  8
Fixed Shading
 62
  9
 10
        2.16621
 20
       -0.52071
 30
       -0.31214
 11
        1.81979
 21
       -0.37928
 31
       -0.45356
 12
        1.81979
 22
       -0.09644
 32
       -0.17072
 13
        2.16621
 23
       -0.23786
 33
       -0.02929
999
Fixed Shading:Mir-SHADING GROUP 1 FACE 110
  0
3DFACE
  8
Fixed Shading
[...]
 11
       -0.18021
 21
       -0.09644
 31
        1.32928
 12
       -0.17821
 22
       -0.09399
 32
        1.32683
 13
       -0.17821
 23
       -0.09399
 33
        1.32683
999
Fixed Shading:Mir-SHADING GROUP 1 FACE 300
  0
3DFACE
  8
Fixed Shading
 62
  9
 10
       -0.17821
 20
       -0.09399
 30
        1.32683
 11
       -0.18021
 21
       -0.09644
 31
        1.32928
 12
        0.16821
 22
       -0.23541
 32
        1.46826
 13
        0.16821
 23
       -0.23541
 33
        1.46826
999
Fixed Shading:SHADING GROUP 1 FACE 301
  0
3DFACE
  8
Fixed Shading
 62
  9
 10
       -0.33179
 20
       -0.23541
 30
        1.46826
 11
       -0.67821
 21
       -0.09399
 31
        1.32683
 12
       -0.67821
 22
       -0.37683
 32
        1.04399
 13
       -0.33179
 23
       -0.51826
 33
        1.18541
999
Fixed Shading:Mir-SHADING GROUP 1 FACE 301
  0
3DFACE
  8
Fixed Shading
 62
  9
 10
       -0.33179
 20
       -0.51826
 30
        1.18541
 11
       -0.67821
 21
       -0.37683
 31
        1.04399
 12
       -0.67821
 22
       -0.09399
 32
        1.32683
 13
       -0.33179
 23
       -0.23541
 33
        1.46826
999
Fixed Shading:SHADING GROUP 1 FACE 302
  0
3DFACE
  8
Fixed Shading
 62
  9
 10
       -0.33379
 20
       -0.52071
 30
        1.18786
 11
       -0.68021
 21
       -0.37928
 31
        1.04644
 12
       -0.68021
 22
       -0.09644
 32
        1.32928
 13
       -0.33379
 23
       -0.23786
 33
        1.47071
999
Fixed Shading:Mir-SHADING GROUP 1 FACE 302
  0
3DFACE
  8
Fixed Shading
 62
  9
 10
       -0.33379
 20
       -0.23786
 30
        1.47071
 11
       -0.68021
 21
       -0.09644
 31
        1.32928
 12
       -0.68021
 22
       -0.37928
 32
        1.04644
 13
       -0.33379
 23
       -0.52071
 33
        1.18786
999
Fixed Shading:SHADING GROUP 1 FACE 303
  0
3DFACE
  8
Fixed Shading
 62
  9
 10
       -0.33179
 20
       -0.51826
 30
        1.18541
 11
       -0.33379
 21
       -0.23786
 31
        1.47071
 12
       -0.33179
 22
       -0.23541
 32
        1.46826
 13
       -0.33179
 23
       -0.23541
 33
        1.46826
999
Fixed Shading:Mir-SHADING GROUP 1 FACE 303
  0
3DFACE
  8
Fixed Shading
 62
  9
 10
       -0.33179
 20
       -0.23541
 30
        1.46826
 11
       -0.33379
 21
       -0.23786
 31
        1.47071
 12
       -0.33179
 22
       -0.51826
 32
        1.18541
 13
       -0.33179
 23
       -0.51826
 33
        1.18541
999
Fixed Shading:SHADING GROUP 1 FACE 304
  0
3DFACE
  8
Fixed Shading
 62
  9
 10
       -0.67821
 20
       -0.37683
 30
        1.04399
 11
       -0.33379
 21
       -0.52071
 31
        1.18786
 12
       -0.33179
 22
       -0.51826
 32
        1.18541
 13
       -0.33179
 23
       -0.51826
 33
        1.18541
999
Fixed Shading:Mir-SHADING GROUP 1 FACE 304
  0
3DFACE
  8
Fixed Shading
 62
  9
 10
       -0.33179
 20
       -0.51826
 30
        1.18541
 11
       -0.33379
 21
       -0.52071
 31
        1.18786
 12
       -0.67821
 22
       -0.37683
 32
        1.04399
 13
       -0.67821
 23
       -0.37683
 33
        1.04399
999
Fixed Shading:SHADING GROUP 1 FACE 305
  0
3DFACE
  8
Fixed Shading
 62
  9
 10
       -0.67821
 20
       -0.09399
 30
        1.32683
 11
       -0.68021
 21
       -0.37928
 31
        1.04644
 12
       -0.67821
 22
       -0.37683
 32
        1.04399
 13
       -0.67821
 23
       -0.37683
 33
        1.04399
999
Fixed Shading:Mir-SHADING GROUP 1 FACE 305
  0
3DFACE
  8
Fixed Shading
 62
  9
 10
       -0.67821
 20
       -0.37683
 30
        1.04399
 11
       -0.68021
 21
       -0.37928
 31
        1.04644
 12
       -0.67821
 22
       -0.09399
 32
        1.32683
 13
       -0.67821
 23
       -0.09399
 33
        1.32683
999
Fixed Shading:SHADING GROUP 1 FACE 306
  0
3DFACE
  8
Fixed Shading
 62
  9
 10
       -0.33179
 20
       -0.23541
 30
        1.46826
 11
       -0.68021
 21
       -0.09644
 31
        1.32928
 12
       -0.67821
 22
       -0.09399
 32
        1.32683
 13
       -0.67821
 23
       -0.09399
 33
        1.32683
999
Fixed Shading:Mir-SHADING GROUP 1 FACE 306
  0
3DFACE
  8
Fixed Shading
 62
  9
 10
       -0.67821
 20
       -0.09399
 30
        1.32683
 11
       -0.68021
 21
       -0.09644
 31
        1.32928
 12
       -0.33179
 22
       -0.23541
 32
        1.46826
 13
       -0.33179
 23
       -0.23541
 33
        1.46826
999
Fixed Shading:SHADING GROUP 1 FACE 307
  0
3DFACE
  8
Fixed Shading
 62
  9
 10
       -0.83179
 20
       -0.23541
 30
        1.46826
 11
       -1.17821
 21
       -0.09399
 31
        1.32683
 12
       -1.17821
 22
       -0.37683
 32
        1.04399
 13
       -0.83179
 23
       -0.51826
 33
        1.18541
999
Fixed Shading:Mir-SHADING GROUP 1 FACE 307
  0
3DFACE
  8
Fixed Shading
 62
  9
 10
       -0.83179
 20
       -0.51826
 30
        1.18541
 11
       -1.17821
 21
       -0.37683
 31
        1.04399
 12
       -1.17821
 22
       -0.09399
 32
        1.32683
 13
       -0.83179
 23
       -0.23541
 33
        1.46826
999
Fixed Shading:SHADING GROUP 1 FACE 308
  0
3DFACE
  8
Fixed Shading
 62
  9
 10
       -0.83379
 20
       -0.52071
 30
        1.18786
 11
       -1.18021
 21
       -0.37928
 31
        1.04644
 12
       -1.18021
 22
       -0.09644
 32
        1.32928
 13
       -0.83379
 23
       -0.23786
 33
        1.47071
999
Fixed Shading:Mir-SHADING GROUP 1 FACE 308
  0
3DFACE
  8
Fixed Shading
 62
  9
 10
       -0.83379
 20
       -0.23786
 30
        1.47071
 11
       -1.18021
 21
       -0.09644
 31
        1.32928
 12
       -1.18021
 22
       -0.37928
 32
        1.04644
 13
       -0.83379
 23
       -0.52071
 33
        1.18786
999
Fixed Shading:SHADING GROUP 1 FACE 309
  0
3DFACE
  8
Fixed Shading
 62
  9
 10
       -0.83179
 20
       -0.51826
 30
        1.18541
 11
       -0.83379
 21
       -0.23786
 31
        1.47071
 12
       -0.83179
 22
       -0.23541
 32
        1.46826
 13
       -0.83179
 23
       -0.23541
 33
        1.46826
999
Fixed Shading:Mir-SHADING GROUP 1 FACE 309
  0
3DFACE
  8
Fixed Shading
 62
  9
 10
       -0.83179
 20
       -0.23541
 30
        1.46826
 11
       -0.83379
 21
       -0.23786
 31
        1.47071
 12
       -0.83179
 22
       -0.51826
 32
        1.18541
 13
       -0.83179
 23
       -0.51826
 33
        1.18541
999
Fixed Shading:SHADING GROUP 1 FACE 310
  0
3DFACE
  8
Fixed Shading
 62
  9
 10
       -1.17821
 20
       -0.37683
 30
        1.04399
 11
       -0.83379
 21
       -0.52071
 31
        1.18786
 12
       -0.83179
 22
       -0.51826
 32
        1.18541
 13
       -0.83179
 23
       -0.51826
 33
        1.18541
999
Fixed Shading:Mir-SHADING GROUP 1 FACE 310
  0
3DFACE
  8
Fixed Shading
 62
  9
 10
       -0.83179
 20
       -0.51826
 30
        1.18541
 11
       -0.83379
 21
       -0.52071
 31
        1.18786
 12
       -1.17821
 22
       -0.37683
 32
        1.04399
 13
       -1.17821
 23
       -0.37683
 33
        1.04399
999
Fixed Shading:SHADING GROUP 1 FACE 311
  0
3DFACE
  8
Fixed Shading
 62
  9
 10
       -1.17821
 20
       -0.09399
 30
        1.32683
 11
       -1.18021
 21
       -0.37928
 31
        1.04644
 12
       -1.17821
 22
       -0.37683
 32
        1.04399
 13
       -1.17821
 23
       -0.37683
 33
        1.04399
999
Fixed Shading:Mir-SHADING GROUP 1 FACE 311
  0
3DFACE
  8
Fixed Shading
 62
  9
 10
       -1.17821
 20
       -0.37683
 30
        1.04399
 11
       -1.18021
 21
       -0.37928
 31
        1.04644
 12
       -1.17821
 22
       -0.09399
 32
        1.32683
 13
       -1.17821
 23
       -0.09399
 33
        1.32683
999
Fixed Shading:SHADING GROUP 1 FACE 312
  0
3DFACE
  8
Fixed Shading
 62
  9
 10
       -0.83179
 20
       -0.23541
 30
        1.46826
 11
       -1.18021
 21
       -0.09644
 31
        1.32928
 12
       -1.17821
 22
       -0.09399
 32
        1.32683
 13
       -1.17821
 23
       -0.09399
 33
        1.32683
999
Fixed Shading:Mir-SHADING GROUP 1 FACE 312
  0
3DFACE
  8
Fixed Shading
 62
  9
 10
       -1.17821
 20
       -0.09399
 30
        1.32683
 11
       -1.18021
 21
       -0.09644
 31
        1.32928
 12
       -0.83179
 22
       -0.23541
 32
        1.46826
 13
       -0.83179
 23
       -0.23541
 33
        1.46826
999
Fixed Shading:SHADING GROUP 1 FACE 313
  0
3DFACE
  8
Fixed Shading
 62
  9
 10
       -1.33179
 20
       -0.23541
 30
        1.46826
 11
       -1.67821
 21
       -0.09399
 31
        1.32683
 12
       -1.67821
 22
       -0.37683
 32
        1.04399
 13
       -1.33179
 23
       -0.51826
 33
        1.18541
999
Fixed Shading:Mir-SHADING GROUP 1 FACE 313
  0
3DFACE
  8
Fixed Shading
 62
  9
 10
       -1.33179
 20
       -0.51826
 30
        1.18541
 11
       -1.67821
 21
       -0.37683
 31
        1.04399
 12
       -1.67821
 22
       -0.09399
 32
        1.32683
 13
       -1.33179
 23
       -0.23541
 33
        1.46826
999
Fixed Shading:SHADING GROUP 1 FACE 314
  0
3DFACE
  8
Fixed Shading
 62
  9
 10
       -1.33379
 20
       -0.52071
 30
        1.18786
 11
       -1.68021
 21
       -0.37928
 31
        1.04644
 12
       -1.68021
 22
       -0.09644
 32
        1.32928
 13
       -1.33379
 23
       -0.23786
 33
        1.47071
999
Fixed Shading:Mir-SHADING GROUP 1 FACE 314
  0
3DFACE
  8
Fixed Shading
 62
  9
 10
       -1.33379
 20
       -0.23786
 30
        1.47071
 11
       -1.68021
 21
       -0.09644
 31
        1.32928
 12
       -1.68021
 22
       -0.37928
 32
        1.04644
 13
       -1.33379
 23
       -0.52071
 33
        1.18786
999
Fixed Shading:SHADING GROUP 1 FACE 315
  0
3DFACE
  8
Fixed Shading
 62
  9
 10
       -1.33179
 20
       -0.51826
 30
        1.18541
 11
       -1.33379
 21
       -0.23786
 31
        1.47071
 12
       -1.33179
 22
       -0.23541
 32
        1.46826
 13
       -1.33179
 23
       -0.23541
 33
        1.46826
999
Fixed Shading:Mir-SHADING GROUP 1 FACE 315
  0
3DFACE
  8
Fixed Shading
 62
  9
 10
       -1.33179
 20
       -0.23541
 30
        1.46826
 11
       -1.33379
 21
       -0.23786
 31
        1.47071
 12
       -1.33179
 22
       -0.51826
 32
        1.18541
 13
       -1.33179
 23
       -0.51826
 33
        1.18541
999
Fixed Shading:SHADING GROUP 1 FACE 316
  0
3DFACE
  8
Fixed Shading
 62
  9
 10
       -1.67821
 20
       -0.37683
 30
        1.04399
 11
       -1.33379
 21
       -0.52071
 31
        1.18786
 12
       -1.33179
 22
       -0.51826
 32
        1.18541
 13
       -1.33179
 23
       -0.51826
 33
        1.18541
999
Fixed Shading:Mir-SHADING GROUP 1 FACE 316
  0
3DFACE
  8
Fixed Shading
 62
  9
 10
       -1.33179
 20
       -0.51826
 30
        1.18541
 11
       -1.33379
 21
       -0.52071
 31
        1.18786
 12
       -1.67821
 22
       -0.37683
 32
        1.04399
 13
       -1.67821
 23
       -0.37683
 33
        1.04399
999
Fixed Shading:SHADING GROUP 1 FACE 317
  0
3DFACE
  8
Fixed Shading
 62
  9
 10
       -1.67821
 20
       -0.09399
 30
        1.32683
 11
       -1.68021
 21
       -0.37928
 31
        1.04644
 12
       -1.67821
 22
       -0.37683
 32
        1.04399
 13
       -1.67821
 23
       -0.37683
 33
        1.04399
999
Fixed Shading:Mir-SHADING GROUP 1 FACE 317
  0
3DFACE
  8
Fixed Shading
 62
  9
 10
       -1.67821
 20
       -0.37683
 30
        1.04399
 11
       -1.68021
 21
       -0.37928
 31
        1.04644
 12
       -1.67821
 22
       -0.09399
 32
        1.32683
 13
       -1.67821
 23
       -0.09399
 33
        1.32683
999
Fixed Shading:SHADING GROUP 1 FACE 318
  0
3DFACE
  8
Fixed Shading
 62
  9
 10
       -1.33179
 20
       -0.23541
 30
        1.46826
 11
       -1.68021
 21
       -0.09644
 31
        1.32928
 12
       -1.67821
 22
       -0.09399
 32
        1.32683
 13
       -1.67821
 23
       -0.09399
 33
        1.32683
999
Fixed Shading:Mir-SHADING GROUP 1 FACE 318
  0
3DFACE
  8
Fixed Shading
 62
  9
 10
       -1.67821
 20
       -0.09399
 30
        1.32683
 11
       -1.68021
 21
       -0.09644
 31
        1.32928
 12
       -1.33179
 22
       -0.23541
 32
        1.46826
 13
       -1.33179
 23
       -0.23541
 33
        1.46826
999
Fixed Shading:SHADING GROUP 1 FACE 319
  0
3DFACE
  8
Fixed Shading
 62
  9
 10
       -1.83179
 20
       -0.23541
 30
        1.46826
 11
       -2.17821
 21
       -0.09399
 31
        1.32683
 12
       -2.17821
 22
       -0.37683
 32
        1.04399
 13
       -1.83179
 23
       -0.51826
 33
        1.18541
999
Fixed Shading:Mir-SHADING GROUP 1 FACE 319
  0
3DFACE
  8
Fixed Shading
 62
  9
 10
       -1.83179
 20
       -0.51826
 30
        1.18541
 11
       -2.17821
 21
       -0.37683
 31
        1.04399
 12
       -2.17821
 22
       -0.09399
 32
        1.32683
 13
       -1.83179
 23
       -0.23541
 33
        1.46826
999
Fixed Shading:SHADING GROUP 1 FACE 320
  0
3DFACE
  8
Fixed Shading
 62
  9
 10
       -1.83379
 20
       -0.52071
 30
        1.18786
 11
       -2.18021
 21
       -0.37928
 31
        1.04644
 12
       -2.18021
 22
       -0.09644
 32
        1.32928
 13
       -1.83379
 23
       -0.23786
 33
        1.47071
999
Fixed Shading:Mir-SHADING GROUP 1 FACE 320
  0
3DFACE
  8
Fixed Shading
 62
  9
 10
       -1.83379
 20
       -0.23786
 30
        1.47071
 11
       -2.18021
 21
       -0.09644
 31
        1.32928
 12
       -2.18021
 22
       -0.37928
 32
        1.04644
 13
       -1.83379
 23
       -0.52071
 33
        1.18786
999
Fixed Shading:SHADING GROUP 1 FACE 321
  0
3DFACE
  8
Fixed Shading
 62
  9
 10
       -1.83179
 20
       -0.51826
 30
        1.18541
 11
       -1.83379
 21
       -0.23786
 31
        1.47071
 12
       -1.83179
 22
       -0.23541
 32
        1.46826
 13
       -1.83179
 23
       -0.23541
 33
        1.46826
999
Fixed Shading:Mir-SHADING GROUP 1 FACE 321
  0
3DFACE
  8
Fixed Shading
 62
  9
 10
       -1.83179
 20
       -0.23541
 30
        1.46826
 11
       -1.83379
 21
       -0.23786
 31
        1.47071
 12
       -1.83179
 22
       -0.51826
 32
        1.18541
 13
       -1.83179
 23
       -0.51826
 33
        1.18541
999
Fixed Shading:SHADING GROUP 1 FACE 322
  0
3DFACE
  8
Fixed Shading
 62
  9
 10
       -2.17821
 20
       -0.37683
 30
        1.04399
 11
       -1.83379
 21
       -0.52071
 31
        1.18786
 12
       -1.83179
 22
       -0.51826
 32
        1.18541
 13
       -1.83179
 23
       -0.51826
 33
        1.18541
999
Fixed Shading:Mir-SHADING GROUP 1 FACE 322
  0
3DFACE
  8
Fixed Shading
 62
  9
 10
       -1.83179
 20
       -0.51826
 30
        1.18541
 11
       -1.83379
 21
       -0.52071
 31
        1.18786
 12
       -2.17821
 22
       -0.37683
 32
        1.04399
 13
       -2.17821
 23
       -0.37683
 33
        1.04399
999
Fixed Shading:SHADING GROUP 1 FACE 323
  0
3DFACE
  8
Fixed Shading
 62
  9
 10
       -2.17821
 20
       -0.09399
 30
        1.32683
 11
       -2.18021
 21
       -0.37928
 31
        1.04644
 12
       -2.17821
 22
       -0.37683
 32
        1.04399
 13
       -2.17821
 23
       -0.37683
 33
        1.04399
999
Fixed Shading:Mir-SHADING GROUP 1 FACE 323
  0
3DFACE
  8
Fixed Shading
 62
  9
 10
       -2.17821
 20
       -0.37683
 30
        1.04399
 11
       -2.18021
 21
       -0.37928
 31
        1.04644
 12
       -2.17821
 22
       -0.09399
 32
        1.32683
 13
       -2.17821
 23
       -0.09399
 33
        1.32683
999
Fixed Shading:SHADING GROUP 1 FACE 324
  0
3DFACE
  8
Fixed Shading
 62
  9
 10
       -1.83179
 20
       -0.23541
 30
        1.46826
 11
       -2.18021
 21
       -0.09644
 31
        1.32928
 12
       -2.17821
 22
       -0.09399
 32
        1.32683
 13
       -2.17821
 23
       -0.09399
 33
        1.32683
999
Fixed Shading:Mir-SHADING GROUP 1 FACE 324
  0
3DFACE
  8
Fixed Shading
 62
  9
 10
       -2.17821
 20
       -0.09399
 30
        1.32683
 11
       -2.18021
 21
       -0.09644
 31
        1.32928
 12
       -1.83179
 22
       -0.23541
 32
        1.46826
 13
       -1.83179
 23
       -0.23541
 33
        1.46826
999
ZONE1:ZONE1_FACE_1
  0
3DFACE
  8
ZONE1
 62
 43
 10
        2.45000
 20
        7.00000
 30
        1.55000
 11
        2.45000
 21
        7.00000
 31
       -1.55000
 12
       -2.45000
 22
        7.00000
 32
       -1.55000
 13
       -2.45000
 23
        7.00000
 33
        1.55000
999
ZONE1:ZONE1_FACE_2
  0
3DFACE
  8
ZONE1
 62
 43
 10
        2.45000
 20
        0.00000
 30
        1.55000
 11
        2.45000
 21
        0.00000
 31
       -1.55000
 12
        2.45000
 22
        7.00000
 32
       -1.55000
 13
        2.45000
 23
        7.00000
 33
        1.55000
999
ZONE1:ZONE1_FACE_3
  0
3DFACE
  8
ZONE1
 62
 43
 10
       -2.45000
 20
        7.00000
 30
        1.55000
 11
       -2.45000
 21
        7.00000
 31
       -1.55000
 12
       -2.45000
 22
        0.00000
 32
       -1.55000
 13
       -2.45000
 23
        0.00000
 33
        1.55000
999
ZONE1:ZONE1_FACE_6
  0
3DFACE
  8
ZONE1
 62
 43
 10
       -2.45000
 20
        0.00000
 30
        1.55000
 11
       -2.45000
 21
        0.00000
 31
       -1.55000
 12
        2.45000
 22
        0.00000
 32
       -1.55000
 13
        2.45000
 23
        0.00000
 33
        1.55000
999
ZONE1:ZONE1_FACE_6_WINDOW_1
  0
3DFACE
  8
ZONE1
 62
143
 10
       -2.25000
 20
        0.00000
 30
        1.50000
 11
       -2.25000
 21
        0.00000
 31
       -1.50000
 12
        2.25000
 22
        0.00000
 32
       -1.50000
 13
        2.25000
 23
        0.00000
 33
        1.50000
999
ZONE1:ZONE1_FACE_5
  0
3DFACE
  8
ZONE1
 62
  8
 10
        2.45000
 20
        7.00000
 30
       -1.55000
 11
        2.45000
 21
        0.00000
 31
       -1.55000
 12
       -2.45000
 22
        0.00000
 32
       -1.55000
 13
       -2.45000
 23
        7.00000
 33
       -1.55000
999
ZONE1:ZONE1_FACE_4
  0
3DFACE
  8
ZONE1
 62
 15
 10
       -2.45000
 20
        7.00000
 30
        1.55000
 11
       -2.45000
 21
        0.00000
 31
        1.55000
 12
        2.45000
 22
        0.00000
 32
        1.55000
 13
        2.45000
 23
        7.00000
 33
        1.55000
999
ZONE1:DayRefPt:1
  0
CIRCLE
  8
ZONE1
 62
 10
 10
        0.00000
 20
        3.50000
 30
       -0.75000
 40
        0.20000
  0
ENDSEC
  0
EOF
