  0
SECTION
  2
ENTITIES
999
DXF created from EnergyPlus
999
Program Version,EnergyPlus-Windows-OMP-32 7.2.0.006, YMD=2014.05.07 10:38
999
Polygon Action,ThickPolyline
999
Color Scheme,Default
999
Text - True North
  0
TEXT
  8
1
  6
Continuous
 62
  3
 10
      -13.45000
 20
        3.00000
 30
        0.10000
 40
 .25
  1
True North
 41
 0.0
  7
MONOTXT
210
0.0
220
0.0
230
1.0
999
Text - Building Title
  0
TEXT
  8
1
  6
Continuous
 62
  3
 10
      -16.45000
 20
       -1.00000
 30
        0.10000
 40
 .4
  1
Building - One Zone Office Model
 41
 0.0
  7
MONOTXT
210
0.0
220
0.0
230
1.0
999
North Arrow Stem
  0
3DFACE
  8
1
 62
  3
 10
      -12.45000
 20
        3.00000
 30
        0.10000
 11
      -12.45000
 21
        3.00000
 31
        0.00000
 12
      -12.45000
 22
        0.00000
 32
        0.00000
 13
      -12.45000
 23
        0.00000
 33
        0.10000
999
North Arrow Head 1
  0
3DFACE
  8
1
 62
  3
 10
      -12.45000
 20
        3.00000
 30
        0.10000
 11
      -12.45000
 21
        3.00000
 31
        0.00000
 12
      -12.95000
 22
        2.13398
 32
        0.00000
 13
      -12.95000
 23
        2.13398
 33
        0.10000
999
North Arrow Head 2
  0
3DFACE
  8
1
 62
  3
 10
      -12.45000
 20
        3.00000
 30
        0.10000
 11
      -12.45000
 21
        3.00000
 31
        0.00000
 12
      -11.95000
 22
        2.13398
 32
        0.00000
 13
      -11.95000
 23
        2.13398
 33
        0.10000
999
North Arrow Side 1
  0
3DFACE
  8
1
 62
  3
 10
      -12.95000
 20
        4.50000
 30
        0.10000
 11
      -12.95000
 21
        4.50000
 31
        0.00000
 12
      -12.95000
 22
        3.50000
 32
        0.00000
 13
      -12.95000
 23
        3.50000
 33
        0.10000
999
North Arrow Side 2
  0
3DFACE
  8
1
 62
  3
 10
      -12.95000
 20
        4.50000
 30
        0.10000
 11
      -12.95000
 21
        4.50000
 31
        0.00000
 12
      -11.95000
 22
        3.50000
 32
        0.00000
 13
      -11.95000
 23
        3.50000
 33
        0.10000
999
North Arrow Side 3
  0
3DFACE
  8
1
 62
  3
 10
      -11.95000
 20
        4.50000
 30
        0.10000
 11
      -11.95000
 21
        4.50000
 31
        0.00000
 12
      -11.95000
 22
        3.50000
 32
        0.00000
 13
      -11.95000
 23
        3.50000
 33
        0.10000
999
Zone Names
999
Zone=1:DIVA_PERIMETER_ZONE
999
DIVA PERIMETER ZONE:EP_ADIABATIC 0
  0
3DFACE
  8
DIVA_PERIMETER_ZONE
 62
 43
 10
        2.45000
 20
        0.00000
 30
        1.55000
 11
        2.45000
 21
        0.00000
 31
       -1.55000
 12
        2.45000
 22
        7.00000
 32
       -1.55000
 13
        2.45000
 23
        7.00000
 33
        1.55000
999
DIVA PERIMETER ZONE:EP_ADIABATIC 1
  0
3DFACE
  8
DIVA_PERIMETER_ZONE
 62
 43
 10
       -2.45000
 20
        7.00000
 30
        1.55000
 11
       -2.45000
 21
        0.00000
 31
        1.55000
 12
       -2.45000
 22
        0.00000
 32
       -1.55000
 13
       -2.45000
 23
        7.00000
 33
       -1.55000
999
DIVA PERIMETER ZONE:EP_ADIABATIC 2
  0
3DFACE
  8
DIVA_PERIMETER_ZONE
 62
 43
 10
       -2.45000
 20
        7.00000
 30
        1.55000
 11
       -2.45000
 21
        7.00000
 31
       -1.55000
 12
        2.45000
 22
        7.00000
 32
       -1.55000
 13
        2.45000
 23
        7.00000
 33
        1.55000
999
DIVA PERIMETER ZONE:EP_WALL 0
  0
3DFACE
  8
DIVA_PERIMETER_ZONE
 62
 43
 10
        2.45000
 20
        0.00000
 30
        1.55000
 11
        2.45000
 21
        0.00000
 31
       -1.55000
 12
       -2.45000
 22
        0.00000
 32
       -1.55000
 13
       -2.45000
 23
        0.00000
 33
        1.55000
999
DIVA PERIMETER ZONE:EP_WINDOW 0
  0
3DFACE
  8
DIVA_PERIMETER_ZONE
 62
143
 10
        2.25000
 20
        0.00000
 30
        1.50000
 11
        2.25000
 21
        0.00000
 31
       -1.50000
 12
       -2.25000
 22
        0.00000
 32
       -1.50000
 13
       -2.25000
 23
        0.00000
 33
        1.50000
999
DIVA PERIMETER ZONE:EP_FLOOR 0
  0
3DFACE
  8
DIVA_PERIMETER_ZONE
 62
  8
 10
        2.45000
 20
        0.00000
 30
       -1.55000
 11
       -2.45000
 21
        0.00000
 31
       -1.55000
 12
       -2.45000
 22
        7.00000
 32
       -1.55000
 13
        2.45000
 23
        7.00000
 33
       -1.55000
999
DIVA PERIMETER ZONE:EP_CEILING 0
  0
3DFACE
  8
DIVA_PERIMETER_ZONE
 62
 15
 10
        2.45000
 20
        7.00000
 30
        1.55000
 11
       -2.45000
 21
        7.00000
 31
        1.55000
 12
       -2.45000
 22
        0.00000
 32
        1.55000
 13
        2.45000
 23
        0.00000
 33
        1.55000
  0
ENDSEC
  0
EOF
