  0
SECTION
  2
ENTITIES
999
DXF created from EnergyPlus
999
Program Version,EnergyPlus-Windows-OMP-32 7.2.0.006, YMD=2014.05.14 18:40
999
Polygon Action,ThickPolyline
999
Color Scheme,Default
999
Text - True North
  0
TEXT
  8
1
  6
Continuous
 62
  3
 10
      -13.45000
 20
        2.41716
 30
        0.10000
 40
 .25
  1
True North
 41
 0.0
  7
MONOTXT
210
0.0
220
0.0
230
1.0
999
Text - Building Title
  0
TEXT
  8
1
  6
Continuous
 62
  3
 10
      -16.45000
 20
       -1.58284
 30
        0.10000
 40
 .4
  1
Building - BUILDING
 41
 0.0
  7
MONOTXT
210
0.0
220
0.0
230
1.0
999
North Arrow Stem
  0
3DFACE
  8
1
 62
  3
 10
      -12.45000
 20
        2.41716
 30
        0.10000
 11
      -12.45000
 21
        2.41716
 31
        0.00000
 12
      -12.45000
 22
       -0.58284
 32
        0.00000
 13
      -12.45000
 23
       -0.58284
 33
        0.10000
999
North Arrow Head 1
  0
3DFACE
  8
1
 62
  3
 10
      -12.45000
 20
        2.41716
 30
        0.10000
 11
      -12.45000
 21
        2.41716
 31
        0.00000
 12
      -12.95000
 22
        1.55113
 32
        0.00000
 13
      -12.95000
 23
        1.55113
 33
        0.10000
999
North Arrow Head 2
  0
3DFACE
  8
1
 62
  3
 10
      -12.45000
 20
        2.41716
 30
        0.10000
 11
      -12.45000
 21
        2.41716
 31
        0.00000
 12
      -11.95000
 22
        1.55113
 32
        0.00000
 13
      -11.95000
 23
        1.55113
 33
        0.10000
999
North Arrow Side 1
  0
3DFACE
  8
1
 62
  3
 10
      -12.95000
 20
        3.91716
 30
        0.10000
 11
      -12.95000
 21
        3.91716
 31
        0.00000
 12
      -12.95000
 22
        2.91716
 32
        0.00000
 13
      -12.95000
 23
        2.91716
 33
        0.10000
999
North Arrow Side 2
  0
3DFACE
  8
1
 62
  3
 10
      -12.95000
 20
        3.91716
 30
        0.10000
 11
      -12.95000
 21
        3.91716
 31
        0.00000
 12
      -11.95000
 22
        2.91716
 32
        0.00000
 13
      -11.95000
 23
        2.91716
 33
        0.10000
999
North Arrow Side 3
  0
3DFACE
  8
1
 62
  3
 10
      -11.95000
 20
        3.91716
 30
        0.10000
 11
      -11.95000
 21
        3.91716
 31
        0.00000
 12
      -11.95000
 22
        2.91716
 32
        0.00000
 13
      -11.95000
 23
        2.91716
 33
        0.10000
999
Zone Names
999
Zone=1:ZONE1
999
Fixed Shading:SHADING GROUP 1 FACE 1
  0
3DFACE
  8
Fixed Shading
 62
  9
 10
        2.01000
 20
       -0.01716
 30
       -1.25000
 11
        2.01000
 21
       -0.30000
 31
       -0.96716
 12
        2.01000
 22
       -0.58284
 32
       -1.25000
 13
        2.01000
 23
       -0.30000
 33
       -1.53284
999
Fixed Shading:Mir-SHADING GROUP 1 FACE 1
  0
3DFACE
  8
Fixed Shading
 62
  9
 10
        2.01000
 20
       -0.30000
 30
       -1.53284
 11
        2.01000
 21
       -0.58284
 31
       -1.25000
 12
        2.01000
 22
       -0.30000
 32
       -0.96716
 13
        2.01000
 23
       -0.01716
 33
       -1.25000
999
Fixed Shading:SHADING GROUP 1 FACE 2
  0
3DFACE
  8
Fixed Shading
 62
  9
 10
        2.01400
 20
       -0.30000
 30
       -1.53284
 11
        2.01400
 21
       -0.58284
 31
       -1.25000
 12
        2.01400
 22
       -0.30000
 32
       -0.96716
 13
        2.01400
 23
       -0.01716
 33
       -1.25000
999
Fixed Shading:Mir-SHADING GROUP 1 FACE 2
  0
3DFACE
  8
Fixed Shading
 62
  9
 10
        2.01400
 20
       -0.01716
 30
       -1.25000
 11
        2.01400
 21
       -0.30000
 31
       -0.96716
 12
        2.01400
 22
       -0.58284
 32
       -1.25000
 13
        2.01400
 23
       -0.30000
 33
       -1.53284
999
Fixed Shading:SHADING GROUP 1 FACE 3
  0
3DFACE
  8
Fixed Shading
 62
  9
 10
        2.01000
 20
       -0.30000
 30
       -1.53284
 11
        2.01400
 21
       -0.01716
 31
       -1.25000
 12
        2.01000
 22
       -0.01716
 32
       -1.25000
 13
        2.01000
 23
       -0.01716
 33
       -1.25000
999
Fixed Shading:Mir-SHADING GROUP 1 FACE 3
  0
3DFACE
  8
Fixed Shading
 62
  9
 10
        2.01000
 20
       -0.01716
 30
       -1.25000
 11
        2.01400
 21
       -0.01716
 31
       -1.25000
 12
        2.01000
 22
       -0.30000
 32
       -1.53284
 13
        2.01000
 23
       -0.30000
 33
       -1.53284
999
Fixed Shading:SHADING GROUP 1 FACE 4
  0
3DFACE
  8
Fixed Shading
 62
  9
 10
        2.01000
 20
       -0.58284
 30
       -1.25000
 11
        2.01400
 21
       -0.30000
 31
       -1.53284
 12
        2.01000
 22
       -0.30000
 32
       -1.53284
 13
        2.01000
 23
       -0.30000
 33
       -1.53284
999
Fixed Shading:Mir-SHADING GROUP 1 FACE 4
  0
3DFACE
  8
Fixed Shading
 62
  9
 10
        2.01000
 20
       -0.30000
 30
       -1.53284
 11
        2.01400
 21
       -0.30000
 31
       -1.53284
 12
        2.01000
 22
       -0.58284
 32
       -1.25000
 13
        2.01000
 23
       -0.58284
 33
       -1.25000
999
Fixed Shading:SHADING GROUP 1 FACE 5
  0
3DFACE
  8
Fixed Shading
 62
  9
 10
        2.01000
 20
       -0.30000
 30
       -0.96716
 11
        2.01400
 21
       -0.58284
 31
       -1.25000
 12
        2.01000
 22
       -0.58284
 32
       -1.25000
 13
        2.01000
 23
       -0.58284
 33
       -1.25000
999
Fixed Shading:Mir-SHADING GROUP 1 FACE 5
  0
3DFACE
  8
Fixed Shading
 62
  9
 10
        2.01000
 20
       -0.58284
 30
       -1.25000
 11
        2.01400
 21
       -0.58284
 31
       -1.25000
 12
        2.01000
 22
       -0.30000
 32
       -0.96716
 13
        2.01000
 23
       -0.30000
 33
       -0.96716
999
Fixed Shading:SHADING GROUP 1 FACE 6
  0
3DFACE
  8
Fixed Shading
 62
  9
 10
        2.01000
 20
       -0.01716
 30
       -1.25000
 11
        2.01400
 21
       -0.30000
 31
       -0.96716
 12
        2.01000
 22
       -0.30000
 32
       -0.96716
 13
        2.01000
 23
       -0.30000
 33
       -0.96716
999
Fixed Shading:Mir-SHADING GROUP 1 FACE 6
  0
3DFACE
  8
Fixed Shading
 62
  9
 10
        2.01000
 20
       -0.30000
 30
       -0.96716
 11
        2.01400
 21
       -0.30000
 31
       -0.96716
 12
        2.01000
 22
       -0.01716
 32
       -1.25000
 13
        2.01000
 23
       -0.01716
 33
       -1.25000
999
Fixed Shading:SHADING GROUP 1 FACE 7
  0
3DFACE
  8
Fixed Shading
 62
  9
 10
        1.51000
 20
       -0.01716
 30
       -1.25000
 11
        1.51000
 21
       -0.30000
 31
       -0.96716
 12
        1.51000
 22
       -0.58284
 32
       -1.25000
 13
        1.51000
 23
       -0.30000
 33
       -1.53284
999
Fixed Shading:Mir-SHADING GROUP 1 FACE 7
  0
3DFACE
  8
Fixed Shading
 62
  9
 10
        1.51000
 20
       -0.30000
 30
       -1.53284
 11
        1.51000
 21
       -0.58284
 31
       -1.25000
 12
        1.51000
 22
       -0.30000
 32
       -0.96716
 13
        1.51000
 23
       -0.01716
 33
       -1.25000
999
Fixed Shading:SHADING GROUP 1 FACE 8
  0
3DFACE
  8
Fixed Shading
 62
  9
 10
        1.51400
 20
       -0.30000
 30
       -1.53284
 11
        1.51400
 21
       -0.58284
 31
       -1.25000
 12
        1.51400
 22
       -0.30000
 32
       -0.96716
 13
        1.51400
 23
       -0.01716
 33
       -1.25000
999
Fixed Shading:Mir-SHADING GROUP 1 FACE 8
  0
3DFACE
  8
Fixed Shading
 62
  9
 10
        1.51400
 20
       -0.01716
 30
       -1.25000
 11
        1.51400
 21
       -0.30000
 31
       -0.96716
 12
        1.51400
 22
       -0.58284
 32
       -1.25000
 13
        1.51400
 23
       -0.30000
 33
       -1.53284
999
Fixed Shading:SHADING GROUP 1 FACE 9
  0
3DFACE
  8
Fixed Shading
 62
  9
 10
        1.51000
 20
       -0.30000
 30
       -1.53284
 11
        1.51400
 21
       -0.01716
 31
       -1.25000
 12
        1.51000
 22
       -0.01716
 32
       -1.25000
 13
        1.51000
 23
       -0.01716
 33
       -1.25000
999
Fixed Shading:Mir-SHADING GROUP 1 FACE 9
  0
3DFACE
  8
Fixed Shading
 62
  9
 10
        1.51000
 20
       -0.01716
 30
       -1.25000
 11
        1.51400
 21
       -0.01716
 31
       -1.25000
 12
        1.51000
 22
       -0.30000
 32
       -1.53284
 13
        1.51000
 23
       -0.30000
 33
       -1.53284
999
Fixed Shading:SHADING GROUP 1 FACE 10
  0
3DFACE
  8
Fixed Shading
 62
  9
 10
        1.51000
 20
       -0.58284
 30
       -1.25000
 11
        1.51400
 21
       -0.30000
 31
       -1.53284
 12
        1.51000
 22
       -0.30000
 32
       -1.53284
 13
        1.51000
 23
       -0.30000
 33
       -1.53284
999
Fixed Shading:Mir-SHADING GROUP 1 FACE 10
  0
3DFACE
  8
Fixed Shading
 62
  9
 10
        1.51000
 20
       -0.30000
 30
       -1.53284
 11
        1.51400
 21
       -0.30000
 31
       -1.53284
 12
        1.51000
 22
       -0.58284
 32
       -1.25000
 13
        1.51000
 23
       -0.58284
 33
       -1.25000
999
Fixed Shading:SHADING GROUP 1 FACE 11
  0
3DFACE
  8
Fixed Shading
 62
  9
 10
        1.51000
 20
       -0.30000
 30
       -0.96716
 11
        1.51400
 21
       -0.58284
 31
       -1.25000
 12
        1.51000
 22
       -0.58284
 32
       -1.25000
 13
        1.51000
 23
       -0.58284
 33
       -1.25000
999
Fixed Shading:Mir-SHADING GROUP 1 FACE 11
  0
3DFACE
  8
Fixed Shading
 62
  9
 10
        1.51000
 20
       -0.58284
 30
       -1.25000
 11
        1.51400
 21
       -0.58284
 31
       -1.25000
 12
        1.51000
 22
       -0.30000
 32
       -0.96716
 13
        1.51000
 23
       -0.30000
 33
       -0.96716
999
Fixed Shading:SHADING GROUP 1 FACE 12
  0
3DFACE
  8
Fixed Shading
 62
  9
 10
        1.51000
 20
       -0.01716
 30
       -1.25000
 11
        1.51400
 21
       -0.30000
 31
       -0.96716
 12
        1.51000
 22
       -0.30000
 32
       -0.96716
 13
        1.51000
 23
       -0.30000
 33
       -0.96716
999
Fixed Shading:Mir-SHADING GROUP 1 FACE 12
  0
3DFACE
  8
Fixed Shading
 62
  9
 10
        1.51000
 20
       -0.30000
 30
       -0.96716
 11
        1.51400
 21
       -0.30000
 31
       -0.96716
 12
        1.51000
 22
       -0.01716
 32
       -1.25000
 13
        1.51000
 23
       -0.01716
 33
       -1.25000
999
Fixed Shading:SHADING GROUP 1 FACE 13
  0
3DFACE
  8
Fixed Shading
 62
  9
 10
        1.01000
 20
       -0.01716
 30
       -1.25000
 11
        1.01000
 21
       -0.30000
 31
       -0.96716
 12
        1.01000
 22
       -0.58284
 32
       -1.25000
 13
        1.01000
 23
       -0.30000
 33
       -1.53284
999
Fixed Shading:Mir-SHADING GROUP 1 FACE 13
  0
3DFACE
  8
Fixed Shading
 62
  9
 10
        1.01000
 20
       -0.30000
 30
       -1.53284
 11
        1.01000
 21
       -0.58284
 31
       -1.25000
 12
        1.01000
 22
       -0.30000
 32
       -0.96716
 13
        1.01000
 23
       -0.01716
 33
       -1.25000
999
Fixed Shading:SHADING GROUP 1 FACE 14
  0
3DFACE
  8
Fixed Shading
 62
  9
 10
        1.01400
 20
       -0.30000
 30
       -1.53284
 11
        1.01400
 21
       -0.58284
 31
       -1.25000
 12
        1.01400
 22
       -0.30000
 32
       -0.96716
 13
        1.01400
 23
       -0.01716
 33
       -1.25000
999
Fixed Shading:Mir-SHADING GROUP 1 FACE 14
  0
3DFACE
  8
Fixed Shading
 62
  9
 10
        1.01400
 20
       -0.01716
 30
       -1.25000
 11
        1.01400
 21
       -0.30000
 31
       -0.96716
 12
        1.01400
 22
       -0.58284
 32
       -1.25000
 13
        1.01400
 23
       -0.30000
 33
       -1.53284
999
Fixed Shading:SHADING GROUP 1 FACE 15
  0
3DFACE
  8
Fixed Shading
 62
  9
 10
        1.01000
 20
       -0.30000
 30
       -1.53284
 11
        1.01400
 21
       -0.01716
 31
       -1.25000
 12
        1.01000
 22
       -0.01716
 32
       -1.25000
 13
        1.01000
 23
       -0.01716
 33
       -1.25000
999
Fixed Shading:Mir-SHADING GROUP 1 FACE 15
  0
3DFACE
  8
Fixed Shading
 62
  9
 10
        1.01000
 20
       -0.01716
 30
       -1.25000
 11
        1.01400
 21
       -0.01716
 31
       -1.25000
 12
        1.01000
 22
       -0.30000
 32
       -1.53284
 13
        1.01000
 23
       -0.30000
 33
       -1.53284
999
Fixed Shading:SHADING GROUP 1 FACE 16
  0
3DFACE
  8
Fixed Shading
 62
  9
 10
        1.01000
 20
       -0.58284
 30
       -1.25000
 11
        1.01400
 21
       -0.30000
 31
       -1.53284
 12
        1.01000
 22
       -0.30000
 32
       -1.53284
 13
        1.01000
 23
       -0.30000
 33
       -1.53284
999
Fixed Shading:Mir-SHADING GROUP 1 FACE 16
  0
3DFACE
  8
Fixed Shading
 62
  9
 10
        1.01000
 20
       -0.30000
 30
       -1.53284
 11
        1.01400
 21
       -0.30000
 31
       -1.53284
 12
        1.01000
 22
       -0.58284
 32
       -1.25000
 13
        1.01000
 23
       -0.58284
 33
       -1.25000
999
Fixed Shading:SHADING GROUP 1 FACE 17
  0
3DFACE
  8
Fixed Shading
 62
  9
 10
        1.01000
 20
       -0.30000
 30
       -0.96716
 11
        1.01400
 21
       -0.58284
 31
       -1.25000
 12
        1.01000
 22
       -0.58284
 32
       -1.25000
 13
        1.01000
 23
       -0.58284
 33
       -1.25000
999
Fixed Shading:Mir-SHADING GROUP 1 FACE 17
  0
3DFACE
  8
Fixed Shading
 62
  9
 10
        1.01000
 20
       -0.58284
 30
       -1.25000
 11
        1.01400
 21
       -0.58284
 31
       -1.25000
 12
        1.01000
 22
       -0.30000
 32
       -0.96716
 13
        1.01000
 23
       -0.30000
 33
       -0.96716
999
Fixed Shading:SHADING GROUP 1 FACE 18
  0
3DFACE
  8
Fixed Shading
 62
  9
 10
        1.01000
 20
       -0.01716
 30
       -1.25000
 11
        1.01400
 21
       -0.30000
 31
       -0.96716
 12
        1.01000
 22
       -0.30000
 32
       -0.96716
 13
        1.01000
 23
       -0.30000
 33
       -0.96716
999
Fixed Shading:Mir-SHADING GROUP 1 FACE 18
  0
3DFACE
  8
Fixed Shading
 62
  9
 10
        1.01000
 20
       -0.30000
 30
       -0.96716
 11
        1.01400
 21
       -0.30000
 31
       -0.96716
 12
        1.01000
 22
       -0.01716
 32
       -1.25000
 13
        1.01000
 23
       -0.01716
 33
       -1.25000
999
Fixed Shading:SHADING GROUP 1 FACE 19
  0
3DFACE
  8
Fixed Shading
 62
  9
 10
        0.51000
 20
       -0.01716
 30
       -1.25000
 11
        0.51000
 21
       -0.30000
 31
       -0.96716
 12
        0.51000
 22
       -0.58284
 32
       -1.25000
 13
        0.51000
 23
       -0.30000
 33
       -1.53284
999
Fixed Shading:Mir-SHADING GROUP 1 FACE 19
  0
3DFACE
  8
Fixed Shading
 62
  9
 10
        0.51000
 20
       -0.30000
 30
       -1.53284
 11
        0.51000
 21
       -0.58284
 31
       -1.25000
 12
        0.51000
 22
       -0.30000
 32
       -0.96716
 13
        0.51000
 23
       -0.01716
 33
       -1.25000
999
Fixed Shading:SHADING GROUP 1 FACE 20
  0
3DFACE
  8
Fixed Shading
 62
  9
 10
        0.51400
 20
       -0.30000
 30
       -1.53284
 11
        0.51400
 21
       -0.58284
 31
       -1.25000
 12
        0.51400
 22
       -0.30000
 32
       -0.96716
 13
        0.51400
 23
       -0.01716
 33
       -1.25000
999
Fixed Shading:Mir-SHADING GROUP 1 FACE 20
  0
3DFACE
  8
Fixed Shading
 62
  9
 10
        0.51400
 20
       -0.01716
 30
       -1.25000
 11
        0.51400
 21
       -0.30000
 31
       -0.96716
 12
        0.51400
 22
       -0.58284
 32
       -1.25000
 13
        0.51400
 23
       -0.30000
 33
       -1.53284
999
Fixed Shading:SHADING GROUP 1 FACE 21
  0
3DFACE
  8
Fixed Shading
 62
  9
 10
        0.51000
 20
       -0.30000
 30
       -1.53284
 11
        0.51400
 21
       -0.01716
 31
       -1.25000
 12
        0.51000
 22
       -0.01716
 32
       -1.25000
 13
        0.51000
 23
       -0.01716
 33
       -1.25000
999
Fixed Shading:Mir-SHADING GROUP 1 FACE 21
  0
3DFACE
  8
Fixed Shading
 62
  9
 10
        0.51000
 20
       -0.01716
 30
       -1.25000
 11
        0.51400
 21
       -0.01716
 31
       -1.25000
 12
        0.51000
 22
       -0.30000
 32
       -1.53284
 13
        0.51000
 23
       -0.30000
 33
       -1.53284
999
Fixed Shading:SHADING GROUP 1 FACE 22
  0
3DFACE
  8
Fixed Shading
 62
  9
 10
        0.51000
 20
       -0.58284
 30
       -1.25000
 11
        0.51400
 21
       -0.30000
 31
       -1.53284
 12
        0.51000
 22
       -0.30000
 32
       -1.53284
 13
        0.51000
 23
       -0.30000
 33
       -1.53284
999
Fixed Shading:Mir-SHADING GROUP 1 FACE 22
  0
3DFACE
  8
Fixed Shading
 62
  9
 10
        0.51000
 20
       -0.30000
 30
       -1.53284
 11
        0.51400
 21
       -0.30000
 31
       -1.53284
 12
        0.51000
 22
       -0.58284
 32
       -1.25000
 13
        0.51000
 23
       -0.58284
 33
       -1.25000
999
Fixed Shading:SHADING GROUP 1 FACE 23
  0
3DFACE
  8
Fixed Shading
 62
  9
 10
        0.51000
 20
       -0.30000
 30
       -0.96716
 11
        0.51400
 21
       -0.58284
 31
       -1.25000
 12
        0.51000
 22
       -0.58284
 32
       -1.25000
 13
        0.51000
 23
       -0.58284
 33
       -1.25000
999
Fixed Shading:Mir-SHADING GROUP 1 FACE 23
  0
3DFACE
  8
Fixed Shading
 62
  9
 10
        0.51000
 20
       -0.58284
 30
       -1.25000
 11
        0.51400
 21
       -0.58284
 31
       -1.25000
 12
        0.51000
 22
       -0.30000
 32
       -0.96716
 13
        0.51000
 23
       -0.30000
 33
       -0.96716
999
Fixed Shading:SHADING GROUP 1 FACE 24
  0
3DFACE
  8
Fixed Shading
 62
  9
 10
        0.51000
 20
       -0.01716
 30
       -1.25000
 11
        0.51400
 21
       -0.30000
 31
       -0.96716
 12
        0.51000
 22
       -0.30000
 32
       -0.96716
 13
        0.51000
 23
       -0.30000
 33
       -0.96716
999
Fixed Shading:Mir-SHADING GROUP 1 FACE 24
  0
3DFACE
  8
Fixed Shading
 62
  9
 10
        0.51000
 20
       -0.30000
 30
       -0.96716
 11
        0.51400
 21
       -0.30000
 31
       -0.96716
 12
        0.51000
 22
       -0.01716
 32
       -1.25000
 13
        0.51000
 23
       -0.01716
 33
       -1.25000
999
Fixed Shading:SHADING GROUP 1 FACE 25
  0
3DFACE
  8
Fixed Shading
 62
  9
 10
        0.01000
 20
       -0.01716
 30
       -1.25000
 11
        0.01000
 21
       -0.30000
 31
       -0.96716
 12
        0.01000
 22
       -0.58284
 32
       -1.25000
 13
        0.01000
 23
       -0.30000
 33
       -1.53284
999
Fixed Shading:Mir-SHADING GROUP 1 FACE 25
  0
3DFACE
  8
Fixed Shading
 62
  9
 10
        0.01000
 20
       -0.30000
 30
       -1.53284
 11
        0.01000
 21
       -0.58284
 31
       -1.25000
 12
        0.01000
 22
       -0.30000
 32
       -0.96716
 13
        0.01000
 23
       -0.01716
 33
       -1.25000
999
Fixed Shading:SHADING GROUP 1 FACE 26
  0
3DFACE
  8
Fixed Shading
 62
  9
 10
        0.01400
 20
       -0.30000
 30
       -1.53284
 11
        0.01400
 21
       -0.58284
 31
       -1.25000
 12
        0.01400
 22
       -0.30000
 32
       -0.96716
 13
        0.01400
 23
       -0.01716
 33
       -1.25000
999
Fixed Shading:Mir-SHADING GROUP 1 FACE 26
  0
3DFACE
  8
Fixed Shading
 62
  9
 10
        0.01400
 20
       -0.01716
 30
       -1.25000
 11
        0.01400
 21
       -0.30000
 31
       -0.96716
 12
        0.01400
 22
       -0.58284
 32
       -1.25000
 13
        0.01400
 23
       -0.30000
 33
       -1.53284
999
Fixed Shading:SHADING GROUP 1 FACE 27
  0
3DFACE
  8
Fixed Shading
 62
  9
 10
        0.01000
 20
       -0.30000
 30
       -1.53284
 11
        0.01400
 21
       -0.01716
 31
       -1.25000
 12
        0.01000
 22
       -0.01716
 32
       -1.25000
 13
        0.01000
 23
       -0.01716
 33
       -1.25000
999
Fixed Shading:Mir-SHADING GROUP 1 FACE 27
  0
3DFACE
  8
Fixed Shading
 62
  9
 10
        0.01000
 20
       -0.01716
 30
       -1.25000
 11
        0.01400
 21
       -0.01716
 31
       -1.25000
 12
        0.01000
 22
       -0.30000
 32
       -1.53284
 13
        0.01000
 23
       -0.30000
 33
       -1.53284
999
Fixed Shading:SHADING GROUP 1 FACE 28
  0
3DFACE
  8
Fixed Shading
 62
  9
 10
        0.01000
 20
       -0.58284
 30
       -1.25000
 11
        0.01400
 21
       -0.30000
 31
       -1.53284
 12
        0.01000
 22
       -0.30000
 32
       -1.53284
 13
        0.01000
 23
       -0.30000
 33
       -1.53284
999
Fixed Shading:Mir-SHADING GROUP 1 FACE 28
  0
3DFACE
  8
Fixed Shading
 62
  9
 10
        0.01000
 20
       -0.30000
 30
       -1.53284
 11
        0.01400
 21
       -0.30000
 31
       -1.53284
 12
        0.01000
 22
       -0.58284
 32
       -1.25000
 13
        0.01000
 23
       -0.58284
 33
       -1.25000
999
Fixed Shading:SHADING GROUP 1 FACE 29
  0
3DFACE
  8
Fixed Shading
 62
  9
 10
        0.01000
 20
       -0.30000
 30
       -0.96716
 11
        0.01400
 21
       -0.58284
 31
       -1.25000
 12
        0.01000
 22
       -0.58284
 32
       -1.25000
 13
        0.01000
 23
       -0.58284
 33
       -1.25000
999
Fixed Shading:Mir-SHADING GROUP 1 FACE 29
  0
3DFACE
  8
Fixed Shading
 62
  9
 10
        0.01000
 20
       -0.58284
 30
       -1.25000
 11
        0.01400
 21
       -0.58284
 31
       -1.25000
 12
        0.01000
 22
       -0.30000
 32
       -0.96716
 13
        0.01000
 23
       -0.30000
 33
       -0.96716
999
Fixed Shading:SHADING GROUP 1 FACE 30
  0
3DFACE
  8
Fixed Shading
 62
  9
 10
        0.01000
 20
       -0.01716
 30
       -1.25000
 11
        0.01400
 21
       -0.30000
 31
       -0.96716
 12
        0.01000
 22
       -0.30000
 32
       -0.96716
 13
        0.01000
 23
       -0.30000
 33
       -0.96716
999
Fixed Shading:Mir-SHADING GROUP 1 FACE 30
  0
3DFACE
  8
Fixed Shading
 62
  9
 10
        0.01000
 20
       -0.30000
 30
       -0.96716
 11
        0.01400
 21
       -0.30000
 31
       -0.96716
 12
        0.01000
 22
       -0.01716
 32
       -1.25000
 13
        0.01000
 23
       -0.01716
 33
       -1.25000
999
Fixed Shading:SHADING GROUP 1 FACE 31
  0
3DFACE
  8
Fixed Shading
 62
  9
 10
       -0.49000
 20
       -0.01716
 30
       -1.25000
 11
       -0.49000
 21
       -0.30000
 31
       -0.96716
 12
       -0.49000
 22
       -0.58284
 32
       -1.25000
 13
       -0.49000
 23
       -0.30000
 33
       -1.53284
999
Fixed Shading:Mir-SHADING GROUP 1 FACE 31
  0
3DFACE
  8
Fixed Shading
 62
  9
 10
       -0.49000
 20
       -0.30000
 30
       -1.53284
 11
       -0.49000
 21
       -0.58284
 31
       -1.25000
 12
       -0.49000
 22
       -0.30000
 32
       -0.96716
 13
       -0.49000
 23
       -0.01716
 33
       -1.25000
999
Fixed Shading:SHADING GROUP 1 FACE 32
  0
3DFACE
  8
Fixed Shading
 62
  9
 10
       -0.48600
 20
       -0.30000
 30
       -1.53284
 11
       -0.48600
 21
       -0.58284
 31
       -1.25000
 12
       -0.48600
 22
       -0.30000
 32
       -0.96716
 13
       -0.48600
 23
       -0.01716
 33
       -1.25000
999
Fixed Shading:Mir-SHADING GROUP 1 FACE 32
  0
3DFACE
  8
Fixed Shading
 62
  9
 10
       -0.48600
 20
       -0.01716
 30
       -1.25000
 11
       -0.48600
 21
       -0.30000
 31
       -0.96716
 12
       -0.48600
 22
       -0.58284
 32
       -1.25000
 13
       -0.48600
 23
       -0.30000
 33
       -1.53284
999
Fixed Shading:SHADING GROUP 1 FACE 33
  0
3DFACE
  8
Fixed Shading
 62
  9
 10
       -0.49000
 20
       -0.30000
 30
       -1.53284
 11
       -0.48600
 21
       -0.01716
 31
       -1.25000
 12
       -0.49000
 22
       -0.01716
 32
       -1.25000
 13
       -0.49000
 23
       -0.01716
 33
       -1.25000
999
Fixed Shading:Mir-SHADING GROUP 1 FACE 33
  0
3DFACE
  8
Fixed Shading
 62
  9
 10
       -0.49000
 20
       -0.01716
 30
       -1.25000
 11
       -0.48600
 21
       -0.01716
 31
       -1.25000
 12
       -0.49000
 22
       -0.30000
 32
       -1.53284
 13
       -0.49000
 23
       -0.30000
 33
       -1.53284
999
Fixed Shading:SHADING GROUP 1 FACE 34
  0
3DFACE
  8
Fixed Shading
 62
  9
 10
       -0.49000
 20
       -0.58284
 30
       -1.25000
 11
       -0.48600
 21
       -0.30000
 31
       -1.53284
 12
       -0.49000
 22
       -0.30000
 32
       -1.53284
 13
       -0.49000
 23
       -0.30000
 33
       -1.53284
999
Fixed Shading:Mir-SHADING GROUP 1 FACE 34
  0
3DFACE
  8
Fixed Shading
 62
  9
 10
       -0.49000
 20
       -0.30000
 30
       -1.53284
 11
       -0.48600
 21
       -0.30000
 31
       -1.53284
 12
       -0.49000
 22
       -0.58284
 32
       -1.25000
 13
       -0.49000
 23
       -0.58284
 33
       -1.25000
999
Fixed Shading:SHADING GROUP 1 FACE 35
  0
3DFACE
  8
Fixed Shading
 62
  9
 10
       -0.49000
 20
       -0.30000
 30
       -0.96716
 11
       -0.48600
 21
       -0.58284
 31
       -1.25000
 12
       -0.49000
 22
       -0.58284
 32
       -1.25000
 13
       -0.49000
 23
       -0.58284
 33
       -1.25000
999
Fixed Shading:Mir-SHADING GROUP 1 FACE 35
  0
3DFACE
  8
Fixed Shading
 62
  9
 10
       -0.49000
 20
       -0.58284
 30
       -1.25000
 11
       -0.48600
 21
       -0.58284
 31
       -1.25000
 12
       -0.49000
 22
       -0.30000
 32
       -0.96716
 13
       -0.49000
 23
       -0.30000
 33
       -0.96716
999
Fixed Shading:SHADING GROUP 1 FACE 36
  0
3DFACE
  8
Fixed Shading
 62
  9
 10
       -0.49000
 20
       -0.01716
 30
       -1.25000
 11
       -0.48600
 21
       -0.30000
 31
       -0.96716
 12
       -0.49000
 22
       -0.30000
 32
       -0.96716
 13
       -0.49000
 23
       -0.30000
 33
       -0.96716
999
Fixed Shading:Mir-SHADING GROUP 1 FACE 36
  0
3DFACE
  8
Fixed Shading
 62
  9
 10
       -0.49000
 20
       -0.30000
 30
       -0.96716
 11
       -0.48600
 21
       -0.30000
 31
       -0.96716
 12
       -0.49000
 22
       -0.01716
 32
       -1.25000
 13
       -0.49000
 23
       -0.01716
 33
       -1.25000
999
Fixed Shading:SHADING GROUP 1 FACE 37
  0
3DFACE
  8
Fixed Shading
 62
  9
 10
       -0.99000
 20
       -0.01716
 30
       -1.25000
 11
       -0.99000
 21
       -0.30000
 31
       -0.96716
 12
       -0.99000
 22
       -0.58284
 32
       -1.25000
 13
       -0.99000
 23
       -0.30000
 33
       -1.53284
999
Fixed Shading:Mir-SHADING GROUP 1 FACE 37
  0
3DFACE
  8
Fixed Shading
 62
  9
 10
       -0.99000
 20
       -0.30000
 30
       -1.53284
 11
       -0.99000
 21
       -0.58284
 31
       -1.25000
 12
       -0.99000
 22
       -0.30000
 32
       -0.96716
 13
       -0.99000
 23
       -0.01716
 33
       -1.25000
999
Fixed Shading:SHADING GROUP 1 FACE 38
  0
3DFACE
  8
Fixed Shading
 62
  9
 10
       -0.98600
 20
       -0.30000
 30
       -1.53284
 11
       -0.98600
 21
       -0.58284
 31
       -1.25000
 12
       -0.98600
 22
       -0.30000
 32
       -0.96716
 13
       -0.98600
 23
       -0.01716
 33
       -1.25000
999
Fixed Shading:Mir-SHADING GROUP 1 FACE 38
  0
3DFACE
  8
Fixed Shading
 62
  9
 10
       -0.98600
 20
       -0.01716
 30
       -1.25000
 11
       -0.98600
 21
       -0.30000
 31
       -0.96716
 12
       -0.98600
 22
       -0.58284
 32
       -1.25000
 13
       -0.98600
 23
       -0.30000
 33
       -1.53284
999
Fixed Shading:SHADING GROUP 1 FACE 39
  0
3DFACE
  8
Fixed Shading
 62
  9
 10
       -0.99000
 20
       -0.30000
 30
       -1.53284
 11
       -0.98600
 21
       -0.01716
 31
       -1.25000
 12
       -0.99000
 22
       -0.01716
 32
       -1.25000
 13
       -0.99000
 23
       -0.01716
 33
       -1.25000
999
Fixed Shading:Mir-SHADING GROUP 1 FACE 39
  0
3DFACE
  8
Fixed Shading
 62
  9
 10
       -0.99000
 20
       -0.01716
 30
       -1.25000
 11
       -0.98600
 21
       -0.01716
 31
       -1.25000
 12
       -0.99000
 22
       -0.30000
 32
       -1.53284
 13
       -0.99000
 23
       -0.30000
 33
       -1.53284
999
Fixed Shading:SHADING GROUP 1 FACE 40
  0
3DFACE
  8
Fixed Shading
 62
  9
 10
       -0.99000
 20
       -0.58284
 30
       -1.25000
 11
       -0.98600
 21
       -0.30000
 31
       -1.53284
 12
       -0.99000
 22
       -0.30000
 32
       -1.53284
 13
       -0.99000
 23
       -0.30000
 33
       -1.53284
999
Fixed Shading:Mir-SHADING GROUP 1 FACE 40
  0
3DFACE
  8
Fixed Shading
 62
  9
 10
       -0.99000
 20
       -0.30000
 30
       -1.53284
 11
       -0.98600
 21
       -0.30000
 31
       -1.53284
 12
       -0.99000
 22
       -0.58284
 32
       -1.25000
 13
       -0.99000
 23
       -0.58284
 33
       -1.25000
999
Fixed Shading:SHADING GROUP 1 FACE 41
  0
3DFACE
  8
Fixed Shading
 62
  9
 10
       -0.99000
 20
       -0.30000
 30
       -0.96716
 11
       -0.98600
 21
       -0.58284
 31
       -1.25000
 12
       -0.99000
 22
       -0.58284
 32
       -1.25000
 13
       -0.99000
 23
       -0.58284
 33
       -1.25000
999
Fixed Shading:Mir-SHADING GROUP 1 FACE 41
  0
3DFACE
  8
Fixed Shading
 62
  9
 10
       -0.99000
 20
       -0.58284
 30
       -1.25000
 11
       -0.98600
 21
       -0.58284
 31
       -1.25000
 12
       -0.99000
 22
       -0.30000
 32
       -0.96716
 13
       -0.99000
 23
       -0.30000
 33
       -0.96716
999
Fixed Shading:SHADING GROUP 1 FACE 42
  0
3DFACE
  8
Fixed Shading
 62
  9
 10
       -0.99000
 20
       -0.01716
 30
       -1.25000
 11
       -0.98600
 21
       -0.30000
 31
       -0.96716
 12
       -0.99000
 22
       -0.30000
 32
       -0.96716
 13
       -0.99000
 23
       -0.30000
 33
       -0.96716
999
Fixed Shading:Mir-SHADING GROUP 1 FACE 42
  0
3DFACE
  8
Fixed Shading
 62
  9
 10
       -0.99000
 20
       -0.30000
 30
       -0.96716
 11
       -0.98600
 21
       -0.30000
 31
       -0.96716
 12
       -0.99000
 22
       -0.01716
 32
       -1.25000
 13
       -0.99000
 23
       -0.01716
 33
       -1.25000
999
Fixed Shading:SHADING GROUP 1 FACE 43
  0
3DFACE
  8
Fixed Shading
 62
  9
 10
       -1.49000
 20
       -0.01716
 30
       -1.25000
 11
       -1.49000
 21
       -0.30000
 31
       -0.96716
 12
       -1.49000
 22
       -0.58284
 32
       -1.25000
 13
       -1.49000
 23
       -0.30000
 33
       -1.53284
999
Fixed Shading:Mir-SHADING GROUP 1 FACE 43
  0
3DFACE
  8
Fixed Shading
 62
  9
 10
       -1.49000
 20
       -0.30000
 30
       -1.53284
 11
       -1.49000
 21
       -0.58284
 31
       -1.25000
 12
       -1.49000
 22
       -0.30000
 32
       -0.96716
 13
       -1.49000
 23
       -0.01716
 33
       -1.25000
999
Fixed Shading:SHADING GROUP 1 FACE 44
  0
3DFACE
  8
Fixed Shading
 62
  9
 10
       -1.48600
 20
       -0.30000
 30
       -1.53284
 11
       -1.48600
 21
       -0.58284
 31
       -1.25000
 12
       -1.48600
 22
       -0.30000
 32
       -0.96716
 13
       -1.48600
 23
       -0.01716
 33
       -1.25000
999
Fixed Shading:Mir-SHADING GROUP 1 FACE 44
  0
3DFACE
  8
Fixed Shading
 62
  9
 10
       -1.48600
 20
       -0.01716
 30
       -1.25000
 11
       -1.48600
 21
       -0.30000
 31
       -0.96716
 12
       -1.48600
 22
       -0.58284
 32
       -1.25000
 13
       -1.48600
 23
       -0.30000
 33
       -1.53284
999
Fixed Shading:SHADING GROUP 1 FACE 45
  0
3DFACE
  8
Fixed Shading
 62
  9
 10
       -1.49000
 20
       -0.30000
 30
       -1.53284
 11
       -1.48600
 21
       -0.01716
 31
       -1.25000
 12
       -1.49000
 22
       -0.01716
 32
       -1.25000
 13
       -1.49000
 23
       -0.01716
 33
       -1.25000
999
Fixed Shading:Mir-SHADING GROUP 1 FACE 45
  0
3DFACE
  8
Fixed Shading
 62
  9
 10
       -1.49000
 20
       -0.01716
 30
       -1.25000
 11
       -1.48600
 21
       -0.01716
 31
       -1.25000
 12
       -1.49000
 22
       -0.30000
 32
       -1.53284
 13
       -1.49000
 23
       -0.30000
 33
       -1.53284
999
Fixed Shading:SHADING GROUP 1 FACE 46
  0
3DFACE
  8
Fixed Shading
 62
  9
 10
       -1.49000
 20
       -0.58284
 30
       -1.25000
 11
       -1.48600
 21
       -0.30000
 31
       -1.53284
 12
       -1.49000
 22
       -0.30000
 32
       -1.53284
 13
       -1.49000
 23
       -0.30000
 33
       -1.53284
999
Fixed Shading:Mir-SHADING GROUP 1 FACE 46
  0
3DFACE
  8
Fixed Shading
 62
  9
 10
       -1.49000
 20
       -0.30000
 30
       -1.53284
 11
       -1.48600
 21
       -0.30000
 31
       -1.53284
 12
       -1.49000
 22
       -0.58284
 32
       -1.25000
 13
       -1.49000
 23
       -0.58284
 33
       -1.25000
999
Fixed Shading:SHADING GROUP 1 FACE 47
  0
3DFACE
  8
Fixed Shading
 62
  9
 10
       -1.49000
 20
       -0.30000
 30
       -0.96716
 11
       -1.48600
 21
       -0.58284
 31
       -1.25000
 12
       -1.49000
 22
       -0.58284
 32
       -1.25000
 13
       -1.49000
 23
       -0.58284
 33
       -1.25000
999
Fixed Shading:Mir-SHADING GROUP 1 FACE 47
  0
3DFACE
  8
Fixed Shading
 62
  9
 10
       -1.49000
 20
       -0.58284
 30
       -1.25000
 11
       -1.48600
 21
       -0.58284
 31
       -1.25000
 12
       -1.49000
 22
       -0.30000
 32
       -0.96716
 13
       -1.49000
 23
       -0.30000
 33
       -0.96716
999
Fixed Shading:SHADING GROUP 1 FACE 48
  0
3DFACE
  8
Fixed Shading
 62
  9
 10
       -1.49000
 20
       -0.01716
 30
       -1.25000
 11
       -1.48600
 21
       -0.30000
 31
       -0.96716
 12
       -1.49000
 22
       -0.30000
 32
       -0.96716
 13
       -1.49000
 23
       -0.30000
 33
       -0.96716
999
Fixed Shading:Mir-SHADING GROUP 1 FACE 48
  0
3DFACE
  8
Fixed Shading
 62
  9
 10
       -1.49000
 20
       -0.30000
 30
       -0.96716
 11
       -1.48600
 21
       -0.30000
 31
       -0.96716
 12
       -1.49000
 22
       -0.01716
 32
       -1.25000
 13
       -1.49000
 23
       -0.01716
 33
       -1.25000
999
Fixed Shading:SHADING GROUP 1 FACE 49
  0
3DFACE
  8
Fixed Shading
 62
  9
 10
       -1.99000
 20
       -0.01716
 30
       -1.25000
 11
       -1.99000
 21
       -0.30000
 31
       -0.96716
 12
       -1.99000
 22
       -0.58284
 32
       -1.25000
 13
       -1.99000
 23
       -0.30000
 33
       -1.53284
999
Fixed Shading:Mir-SHADING GROUP 1 FACE 49
  0
3DFACE
  8
Fixed Shading
 62
  9
 10
       -1.99000
 20
       -0.30000
 30
       -1.53284
 11
       -1.99000
 21
       -0.58284
 31
       -1.25000
 12
       -1.99000
 22
       -0.30000
 32
       -0.96716
 13
       -1.99000
 23
       -0.01716
 33
       -1.25000
999
Fixed Shading:SHADING GROUP 1 FACE 50
  0
3DFACE
  8
Fixed Shading
 62
  9
 10
       -1.98600
 20
       -0.30000
 30
       -1.53284
 11
       -1.98600
 21
       -0.58284
 31
       -1.25000
 12
       -1.98600
 22
       -0.30000
 32
       -0.96716
 13
       -1.98600
 23
       -0.01716
 33
       -1.25000
999
Fixed Shading:Mir-SHADING GROUP 1 FACE 50
  0
3DFACE
  8
Fixed Shading
 62
  9
 10
       -1.98600
 20
       -0.01716
 30
       -1.25000
 11
       -1.98600
 21
       -0.30000
 31
       -0.96716
 12
       -1.98600
 22
       -0.58284
 32
       -1.25000
 13
       -1.98600
 23
       -0.30000
 33
       -1.53284
999
Fixed Shading:SHADING GROUP 1 FACE 51
  0
3DFACE
  8
Fixed Shading
 62
  9
 10
       -1.99000
 20
       -0.30000
 30
       -1.53284
 11
       -1.98600
 21
       -0.01716
 31
       -1.25000
 12
       -1.99000
 22
       -0.01716
 32
       -1.25000
 13
       -1.99000
 23
       -0.01716
 33
       -1.25000
999
Fixed Shading:Mir-SHADING GROUP 1 FACE 51
  0
3DFACE
  8
Fixed Shading
 62
  9
 10
       -1.99000
 20
       -0.01716
 30
       -1.25000
 11
       -1.98600
 21
       -0.01716
 31
       -1.25000
 12
       -1.99000
 22
       -0.30000
 32
       -1.53284
 13
       -1.99000
 23
       -0.30000
 33
       -1.53284
999
Fixed Shading:SHADING GROUP 1 FACE 52
  0
3DFACE
  8
Fixed Shading
 62
  9
 10
       -1.99000
 20
       -0.58284
 30
       -1.25000
 11
       -1.98600
 21
       -0.30000
 31
       -1.53284
 12
       -1.99000
 22
       -0.30000
 32
       -1.53284
 13
       -1.99000
 23
       -0.30000
 33
       -1.53284
999
Fixed Shading:Mir-SHADING GROUP 1 FACE 52
  0
3DFACE
  8
Fixed Shading
 62
  9
 10
       -1.99000
 20
       -0.30000
 30
       -1.53284
 11
       -1.98600
 21
       -0.30000
 31
       -1.53284
 12
       -1.99000
 22
       -0.58284
 32
       -1.25000
 13
       -1.99000
 23
       -0.58284
 33
       -1.25000
999
Fixed Shading:SHADING GROUP 1 FACE 53
  0
3DFACE
  8
Fixed Shading
 62
  9
 10
       -1.99000
 20
       -0.30000
 30
       -0.96716
 11
       -1.98600
 21
       -0.58284
 31
       -1.25000
 12
       -1.99000
 22
       -0.58284
 32
       -1.25000
 13
       -1.99000
 23
       -0.58284
 33
       -1.25000
999
Fixed Shading:Mir-SHADING GROUP 1 FACE 53
  0
3DFACE
  8
Fixed Shading
 62
  9
 10
       -1.99000
 20
       -0.58284
 30
       -1.25000
 11
       -1.98600
 21
       -0.58284
 31
       -1.25000
 12
       -1.99000
 22
       -0.30000
 32
       -0.96716
 13
       -1.99000
 23
       -0.30000
 33
       -0.96716
999
Fixed Shading:SHADING GROUP 1 FACE 54
  0
3DFACE
  8
Fixed Shading
 62
  9
 10
       -1.99000
 20
       -0.01716
 30
       -1.25000
 11
       -1.98600
 21
       -0.30000
 31
       -0.96716
 12
       -1.99000
 22
       -0.30000
 32
       -0.96716
 13
       -1.99000
 23
       -0.30000
 33
       -0.96716
999
Fixed Shading:Mir-SHADING GROUP 1 FACE 54
  0
3DFACE
  8
Fixed Shading
 62
  9
 10
       -1.99000
 20
       -0.30000
 30
       -0.96716
 11
       -1.98600
 21
       -0.30000
 31
       -0.96716
 12
       -1.99000
 22
       -0.01716
 32
       -1.25000
 13
       -1.99000
 23
       -0.01716
 33
       -1.25000
999
Fixed Shading:SHADING GROUP 1 FACE 55
  0
3DFACE
  8
Fixed Shading
 62
  9
 10
        2.01000
 20
       -0.01716
 30
       -0.75000
 11
        2.01000
 21
       -0.30000
 31
       -0.46716
 12
        2.01000
 22
       -0.58284
 32
       -0.75000
 13
        2.01000
 23
       -0.30000
 33
       -1.03284
999
Fixed Shading:Mir-SHADING GROUP 1 FACE 55
  0
3DFACE
  8
Fixed Shading
 62
  9
 10
        2.01000
 20
       -0.30000
 30
       -1.03284
 11
        2.01000
 21
       -0.58284
 31
       -0.75000
 12
        2.01000
 22
       -0.30000
 32
       -0.46716
 13
        2.01000
 23
       -0.01716
 33
       -0.75000
999
Fixed Shading:SHADING GROUP 1 FACE 56
  0
3DFACE
  8
Fixed Shading
 62
  9
 10
        2.01400
 20
       -0.30000
 30
       -1.03284
 11
        2.01400
 21
       -0.58284
 31
       -0.75000
 12
        2.01400
 22
       -0.30000
 32
       -0.46716
 13
        2.01400
 23
       -0.01716
 33
       -0.75000
999
Fixed Shading:Mir-SHADING GROUP 1 FACE 56
  0
3DFACE
  8
Fixed Shading
 62
  9
 10
        2.01400
 20
       -0.01716
 30
       -0.75000
 11
        2.01400
 21
       -0.30000
 31
       -0.46716
 12
        2.01400
 22
       -0.58284
 32
       -0.75000
 13
        2.01400
 23
       -0.30000
 33
       -1.03284
999
Fixed Shading:SHADING GROUP 1 FACE 57
  0
3DFACE
  8
Fixed Shading
 62
  9
 10
        2.01000
 20
       -0.30000
 30
       -1.03284
 11
        2.01400
 21
       -0.01716
 31
       -0.75000
 12
        2.01000
 22
       -0.01716
 32
       -0.75000
 13
        2.01000
 23
       -0.01716
 33
       -0.75000
999
Fixed Shading:Mir-SHADING GROUP 1 FACE 57
  0
3DFACE
  8
Fixed Shading
 62
  9
 10
        2.01000
 20
       -0.01716
 30
       -0.75000
 11
        2.01400
 21
       -0.01716
 31
       -0.75000
 12
        2.01000
 22
       -0.30000
 32
       -1.03284
 13
        2.01000
 23
       -0.30000
 33
       -1.03284
999
Fixed Shading:SHADING GROUP 1 FACE 58
  0
3DFACE
  8
Fixed Shading
 62
  9
 10
        2.01000
 20
       -0.58284
 30
       -0.75000
 11
        2.01400
 21
       -0.30000
 31
       -1.03284
 12
        2.01000
 22
       -0.30000
 32
       -1.03284
 13
        2.01000
 23
       -0.30000
 33
       -1.03284
999
Fixed Shading:Mir-SHADING GROUP 1 FACE 58
  0
3DFACE
  8
Fixed Shading
 62
  9
 10
        2.01000
 20
       -0.30000
 30
       -1.03284
 11
        2.01400
 21
       -0.30000
 31
       -1.03284
 12
        2.01000
 22
       -0.58284
 32
       -0.75000
 13
        2.01000
 23
       -0.58284
 33
       -0.75000
999
Fixed Shading:SHADING GROUP 1 FACE 59
  0
3DFACE
  8
Fixed Shading
 62
  9
 10
        2.01000
 20
       -0.30000
 30
       -0.46716
 11
        2.01400
 21
       -0.58284
 31
       -0.75000
 12
        2.01000
 22
       -0.58284
 32
       -0.75000
 13
        2.01000
 23
       -0.58284
 33
       -0.75000
999
Fixed Shading:Mir-SHADING GROUP 1 FACE 59
  0
3DFACE
  8
Fixed Shading
 62
  9
 10
        2.01000
 20
       -0.58284
 30
       -0.75000
 11
        2.01400
 21
       -0.58284
 31
       -0.75000
 12
        2.01000
 22
       -0.30000
 32
       -0.46716
 13
        2.01000
 23
       -0.30000
 33
       -0.46716
999
Fixed Shading:SHADING GROUP 1 FACE 60
  0
3DFACE
  8
Fixed Shading
 62
  9
 10
        2.01000
 20
       -0.01716
 30
       -0.75000
 11
        2.01400
 21
       -0.30000
 31
       -0.46716
 12
        2.01000
 22
       -0.30000
 32
       -0.46716
 13
        2.01000
 23
       -0.30000
 33
       -0.46716
999
Fixed Shading:Mir-SHADING GROUP 1 FACE 60
  0
3DFACE
  8
Fixed Shading
 62
  9
 10
        2.01000
 20
       -0.30000
 30
       -0.46716
 11
        2.01400
 21
       -0.30000
 31
       -0.46716
 12
        2.01000
 22
       -0.01716
 32
       -0.75000
 13
        2.01000
 23
       -0.01716
 33
       -0.75000
999
Fixed Shading:SHADING GROUP 1 FACE 61
  0
3DFACE
  8
Fixed Shading
 62
  9
 10
        1.51000
 20
       -0.01716
 30
       -0.75000
 11
        1.51000
 21
       -0.30000
 31
       -0.46716
 12
        1.51000
 22
       -0.58284
 32
       -0.75000
 13
        1.51000
 23
       -0.30000
 33
       -1.03284
999
Fixed Shading:Mir-SHADING GROUP 1 FACE 61
  0
3DFACE
  8
Fixed Shading
 62
  9
 10
        1.51000
 20
       -0.30000
 30
       -1.03284
 11
        1.51000
 21
       -0.58284
 31
       -0.75000
 12
        1.51000
 22
       -0.30000
 32
       -0.46716
 13
        1.51000
 23
       -0.01716
 33
       -0.75000
999
Fixed Shading:SHADING GROUP 1 FACE 62
  0
3DFACE
  8
Fixed Shading
 62
  9
 10
        1.51400
 20
       -0.30000
 30
       -1.03284
 11
        1.51400
 21
       -0.58284
 31
       -0.75000
 12
        1.51400
 22
       -0.30000
 32
       -0.46716
 13
        1.51400
 23
       -0.01716
 33
       -0.75000
999
Fixed Shading:Mir-SHADING GROUP 1 FACE 62
  0
3DFACE
  8
Fixed Shading
 62
  9
 10
        1.51400
 20
       -0.01716
 30
       -0.75000
 11
        1.51400
 21
       -0.30000
 31
       -0.46716
 12
        1.51400
 22
       -0.58284
 32
       -0.75000
 13
        1.51400
 23
       -0.30000
 33
       -1.03284
999
Fixed Shading:SHADING GROUP 1 FACE 63
  0
3DFACE
  8
Fixed Shading
 62
  9
 10
        1.51000
 20
       -0.30000
 30
       -1.03284
 11
        1.51400
 21
       -0.01716
 31
       -0.75000
 12
        1.51000
 22
       -0.01716
 32
       -0.75000
 13
        1.51000
 23
       -0.01716
 33
       -0.75000
999
Fixed Shading:Mir-SHADING GROUP 1 FACE 63
  0
3DFACE
  8
Fixed Shading
 62
  9
 10
        1.51000
 20
       -0.01716
 30
       -0.75000
 11
        1.51400
 21
       -0.01716
 31
       -0.75000
 12
        1.51000
 22
       -0.30000
 32
       -1.03284
 13
        1.51000
 23
       -0.30000
 33
       -1.03284
999
Fixed Shading:SHADING GROUP 1 FACE 64
  0
3DFACE
  8
Fixed Shading
 62
  9
 10
        1.51000
 20
       -0.58284
 30
       -0.75000
 11
        1.51400
 21
       -0.30000
 31
       -1.03284
 12
        1.51000
 22
       -0.30000
 32
       -1.03284
 13
        1.51000
 23
       -0.30000
 33
       -1.03284
999
Fixed Shading:Mir-SHADING GROUP 1 FACE 64
  0
3DFACE
  8
Fixed Shading
 62
  9
 10
        1.51000
 20
       -0.30000
 30
       -1.03284
 11
        1.51400
 21
       -0.30000
 31
       -1.03284
 12
        1.51000
 22
       -0.58284
 32
       -0.75000
 13
        1.51000
 23
       -0.58284
 33
       -0.75000
999
Fixed Shading:SHADING GROUP 1 FACE 65
  0
3DFACE
  8
Fixed Shading
 62
  9
 10
        1.51000
 20
       -0.30000
 30
       -0.46716
 11
        1.51400
 21
       -0.58284
 31
       -0.75000
 12
        1.51000
 22
       -0.58284
 32
       -0.75000
 13
        1.51000
 23
       -0.58284
 33
       -0.75000
999
Fixed Shading:Mir-SHADING GROUP 1 FACE 65
  0
3DFACE
  8
Fixed Shading
 62
  9
 10
        1.51000
 20
       -0.58284
 30
       -0.75000
 11
        1.51400
 21
       -0.58284
 31
       -0.75000
 12
        1.51000
 22
       -0.30000
 32
       -0.46716
 13
        1.51000
 23
       -0.30000
 33
       -0.46716
999
Fixed Shading:SHADING GROUP 1 FACE 66
  0
3DFACE
  8
Fixed Shading
 62
  9
 10
        1.51000
 20
       -0.01716
 30
       -0.75000
 11
        1.51400
 21
       -0.30000
 31
       -0.46716
 12
        1.51000
 22
       -0.30000
 32
       -0.46716
 13
        1.51000
 23
       -0.30000
 33
       -0.46716
999
Fixed Shading:Mir-SHADING GROUP 1 FACE 66
  0
3DFACE
  8
Fixed Shading
 62
  9
 10
        1.51000
 20
       -0.30000
 30
       -0.46716
 11
        1.51400
 21
       -0.30000
 31
       -0.46716
 12
        1.51000
 22
       -0.01716
 32
       -0.75000
 13
        1.51000
 23
       -0.01716
 33
       -0.75000
999
Fixed Shading:SHADING GROUP 1 FACE 67
  0
3DFACE
  8
Fixed Shading
 62
  9
 10
        1.01000
 20
       -0.01716
 30
       -0.75000
 11
        1.01000
 21
       -0.30000
 31
       -0.46716
 12
        1.01000
 22
       -0.58284
 32
       -0.75000
 13
        1.01000
 23
       -0.30000
 33
       -1.03284
999
Fixed Shading:Mir-SHADING GROUP 1 FACE 67
  0
3DFACE
  8
Fixed Shading
 62
  9
 10
        1.01000
 20
       -0.30000
 30
       -1.03284
 11
        1.01000
 21
       -0.58284
 31
       -0.75000
 12
        1.01000
 22
       -0.30000
 32
       -0.46716
 13
        1.01000
 23
       -0.01716
 33
       -0.75000
999
Fixed Shading:SHADING GROUP 1 FACE 68
  0
3DFACE
  8
Fixed Shading
 62
  9
 10
        1.01400
 20
       -0.30000
 30
       -1.03284
 11
        1.01400
 21
       -0.58284
 31
       -0.75000
 12
        1.01400
 22
       -0.30000
 32
       -0.46716
 13
        1.01400
 23
       -0.01716
 33
       -0.75000
999
Fixed Shading:Mir-SHADING GROUP 1 FACE 68
  0
3DFACE
  8
Fixed Shading
 62
  9
 10
        1.01400
 20
       -0.01716
 30
       -0.75000
 11
        1.01400
 21
       -0.30000
 31
       -0.46716
 12
        1.01400
 22
       -0.58284
 32
       -0.75000
 13
        1.01400
 23
       -0.30000
 33
       -1.03284
999
Fixed Shading:SHADING GROUP 1 FACE 69
  0
3DFACE
  8
Fixed Shading
 62
  9
 10
        1.01000
 20
       -0.30000
 30
       -1.03284
 11
        1.01400
 21
       -0.01716
 31
       -0.75000
 12
        1.01000
 22
       -0.01716
 32
       -0.75000
 13
        1.01000
 23
       -0.01716
 33
       -0.75000
999
Fixed Shading:Mir-SHADING GROUP 1 FACE 69
  0
3DFACE
  8
Fixed Shading
 62
  9
 10
        1.01000
 20
       -0.01716
 30
       -0.75000
 11
        1.01400
 21
       -0.01716
 31
       -0.75000
 12
        1.01000
 22
       -0.30000
 32
       -1.03284
 13
        1.01000
 23
       -0.30000
 33
       -1.03284
999
Fixed Shading:SHADING GROUP 1 FACE 70
  0
3DFACE
  8
Fixed Shading
 62
  9
 10
        1.01000
 20
       -0.58284
 30
       -0.75000
 11
        1.01400
 21
       -0.30000
 31
       -1.03284
 12
        1.01000
 22
       -0.30000
 32
       -1.03284
 13
        1.01000
 23
       -0.30000
 33
       -1.03284
999
Fixed Shading:Mir-SHADING GROUP 1 FACE 70
  0
3DFACE
  8
Fixed Shading
 62
  9
 10
        1.01000
 20
       -0.30000
 30
       -1.03284
 11
        1.01400
 21
       -0.30000
 31
       -1.03284
 12
        1.01000
 22
       -0.58284
 32
       -0.75000
 13
        1.01000
 23
       -0.58284
 33
       -0.75000
999
Fixed Shading:SHADING GROUP 1 FACE 71
  0
3DFACE
  8
Fixed Shading
 62
  9
 10
        1.01000
 20
       -0.30000
 30
       -0.46716
 11
        1.01400
 21
       -0.58284
 31
       -0.75000
 12
        1.01000
 22
       -0.58284
 32
       -0.75000
 13
        1.01000
 23
       -0.58284
 33
       -0.75000
999
Fixed Shading:Mir-SHADING GROUP 1 FACE 71
  0
3DFACE
  8
Fixed Shading
 62
  9
 10
        1.01000
 20
       -0.58284
 30
       -0.75000
 11
        1.01400
 21
       -0.58284
 31
       -0.75000
 12
        1.01000
 22
       -0.30000
 32
       -0.46716
 13
        1.01000
 23
       -0.30000
 33
       -0.46716
999
Fixed Shading:SHADING GROUP 1 FACE 72
  0
3DFACE
  8
Fixed Shading
 62
  9
 10
        1.01000
 20
       -0.01716
 30
       -0.75000
 11
        1.01400
 21
       -0.30000
 31
       -0.46716
 12
        1.01000
 22
       -0.30000
 32
       -0.46716
 13
        1.01000
 23
       -0.30000
 33
       -0.46716
999
Fixed Shading:Mir-SHADING GROUP 1 FACE 72
  0
3DFACE
  8
Fixed Shading
 62
  9
 10
        1.01000
 20
       -0.30000
 30
       -0.46716
 11
        1.01400
 21
       -0.30000
 31
       -0.46716
 12
        1.01000
 22
       -0.01716
 32
       -0.75000
 13
        1.01000
 23
       -0.01716
 33
       -0.75000
999
Fixed Shading:SHADING GROUP 1 FACE 73
  0
3DFACE
  8
Fixed Shading
 62
  9
 10
        0.51000
 20
       -0.01716
 30
       -0.75000
 11
        0.51000
 21
       -0.30000
 31
       -0.46716
 12
        0.51000
 22
       -0.58284
 32
       -0.75000
 13
        0.51000
 23
       -0.30000
 33
       -1.03284
999
Fixed Shading:Mir-SHADING GROUP 1 FACE 73
  0
3DFACE
  8
Fixed Shading
 62
  9
 10
        0.51000
 20
       -0.30000
 30
       -1.03284
 11
        0.51000
 21
       -0.58284
 31
       -0.75000
 12
        0.51000
 22
       -0.30000
 32
       -0.46716
 13
        0.51000
 23
       -0.01716
 33
       -0.75000
999
Fixed Shading:SHADING GROUP 1 FACE 74
  0
3DFACE
  8
Fixed Shading
 62
  9
 10
        0.51400
 20
       -0.30000
 30
       -1.03284
 11
        0.51400
 21
       -0.58284
 31
       -0.75000
 12
        0.51400
 22
       -0.30000
 32
       -0.46716
 13
        0.51400
 23
       -0.01716
 33
       -0.75000
999
Fixed Shading:Mir-SHADING GROUP 1 FACE 74
  0
3DFACE
  8
Fixed Shading
 62
  9
 10
        0.51400
 20
       -0.01716
 30
       -0.75000
 11
        0.51400
 21
       -0.30000
 31
       -0.46716
 12
        0.51400
 22
       -0.58284
 32
       -0.75000
 13
        0.51400
 23
       -0.30000
 33
       -1.03284
999
Fixed Shading:SHADING GROUP 1 FACE 75
  0
3DFACE
  8
Fixed Shading
 62
  9
 10
        0.51000
 20
       -0.30000
 30
       -1.03284
 11
        0.51400
 21
       -0.01716
 31
       -0.75000
 12
        0.51000
 22
       -0.01716
 32
       -0.75000
 13
        0.51000
 23
       -0.01716
 33
       -0.75000
999
Fixed Shading:Mir-SHADING GROUP 1 FACE 75
  0
3DFACE
  8
Fixed Shading
 62
  9
 10
        0.51000
 20
       -0.01716
 30
       -0.75000
 11
        0.51400
 21
       -0.01716
 31
       -0.75000
 12
        0.51000
 22
       -0.30000
 32
       -1.03284
 13
        0.51000
 23
       -0.30000
 33
       -1.03284
999
Fixed Shading:SHADING GROUP 1 FACE 76
  0
3DFACE
  8
Fixed Shading
 62
  9
 10
        0.51000
 20
       -0.58284
 30
       -0.75000
 11
        0.51400
 21
       -0.30000
 31
       -1.03284
 12
        0.51000
 22
       -0.30000
 32
       -1.03284
 13
        0.51000
 23
       -0.30000
 33
       -1.03284
999
Fixed Shading:Mir-SHADING GROUP 1 FACE 76
  0
3DFACE
  8
Fixed Shading
 62
  9
 10
        0.51000
 20
       -0.30000
 30
       -1.03284
 11
        0.51400
 21
       -0.30000
 31
       -1.03284
 12
        0.51000
 22
       -0.58284
 32
       -0.75000
 13
        0.51000
 23
       -0.58284
 33
       -0.75000
999
Fixed Shading:SHADING GROUP 1 FACE 77
  0
3DFACE
  8
Fixed Shading
 62
  9
 10
        0.51000
 20
       -0.30000
 30
       -0.46716
 11
        0.51400
 21
       -0.58284
 31
       -0.75000
 12
        0.51000
 22
       -0.58284
 32
       -0.75000
 13
        0.51000
 23
       -0.58284
 33
       -0.75000
999
Fixed Shading:Mir-SHADING GROUP 1 FACE 77
  0
3DFACE
  8
Fixed Shading
 62
  9
 10
        0.51000
 20
       -0.58284
 30
       -0.75000
 11
        0.51400
 21
       -0.58284
 31
       -0.75000
 12
        0.51000
 22
       -0.30000
 32
       -0.46716
 13
        0.51000
 23
       -0.30000
 33
       -0.46716
999
Fixed Shading:SHADING GROUP 1 FACE 78
  0
3DFACE
  8
Fixed Shading
 62
  9
 10
        0.51000
 20
       -0.01716
 30
       -0.75000
 11
        0.51400
 21
       -0.30000
 31
       -0.46716
 12
        0.51000
 22
       -0.30000
 32
       -0.46716
 13
        0.51000
 23
       -0.30000
 33
       -0.46716
999
Fixed Shading:Mir-SHADING GROUP 1 FACE 78
  0
3DFACE
  8
Fixed Shading
 62
  9
 10
        0.51000
 20
       -0.30000
 30
       -0.46716
 11
        0.51400
 21
       -0.30000
 31
       -0.46716
 12
        0.51000
 22
       -0.01716
 32
       -0.75000
 13
        0.51000
 23
       -0.01716
 33
       -0.75000
999
Fixed Shading:SHADING GROUP 1 FACE 79
  0
3DFACE
  8
Fixed Shading
 62
  9
 10
        0.01000
 20
       -0.01716
 30
       -0.75000
 11
        0.01000
 21
       -0.30000
 31
       -0.46716
 12
        0.01000
 22
       -0.58284
 32
       -0.75000
 13
        0.01000
 23
       -0.30000
 33
       -1.03284
999
Fixed Shading:Mir-SHADING GROUP 1 FACE 79
  0
3DFACE
  8
Fixed Shading
 62
  9
 10
        0.01000
 20
       -0.30000
 30
       -1.03284
 11
        0.01000
 21
       -0.58284
 31
       -0.75000
 12
        0.01000
 22
       -0.30000
 32
       -0.46716
 13
        0.01000
 23
       -0.01716
 33
       -0.75000
999
Fixed Shading:SHADING GROUP 1 FACE 80
  0
3DFACE
  8
Fixed Shading
 62
  9
 10
        0.01400
 20
       -0.30000
 30
       -1.03284
 11
        0.01400
 21
       -0.58284
 31
       -0.75000
 12
        0.01400
 22
       -0.30000
 32
       -0.46716
 13
        0.01400
 23
       -0.01716
 33
       -0.75000
999
Fixed Shading:Mir-SHADING GROUP 1 FACE 80
  0
3DFACE
  8
Fixed Shading
 62
  9
 10
        0.01400
 20
       -0.01716
 30
       -0.75000
 11
        0.01400
 21
       -0.30000
 31
       -0.46716
 12
        0.01400
 22
       -0.58284
 32
       -0.75000
 13
        0.01400
 23
       -0.30000
 33
       -1.03284
999
Fixed Shading:SHADING GROUP 1 FACE 81
  0
3DFACE
  8
Fixed Shading
 62
  9
 10
        0.01000
 20
       -0.30000
 30
       -1.03284
 11
        0.01400
 21
       -0.01716
 31
       -0.75000
 12
        0.01000
 22
       -0.01716
 32
       -0.75000
 13
        0.01000
 23
       -0.01716
 33
       -0.75000
999
Fixed Shading:Mir-SHADING GROUP 1 FACE 81
  0
3DFACE
  8
Fixed Shading
 62
  9
 10
        0.01000
 20
       -0.01716
 30
       -0.75000
 11
        0.01400
 21
       -0.01716
 31
       -0.75000
 12
        0.01000
 22
       -0.30000
 32
       -1.03284
 13
        0.01000
 23
       -0.30000
 33
       -1.03284
999
Fixed Shading:SHADING GROUP 1 FACE 82
  0
3DFACE
  8
Fixed Shading
 62
  9
 10
        0.01000
 20
       -0.58284
 30
       -0.75000
 11
        0.01400
 21
       -0.30000
 31
       -1.03284
 12
        0.01000
 22
       -0.30000
 32
       -1.03284
 13
        0.01000
 23
       -0.30000
 33
       -1.03284
999
Fixed Shading:Mir-SHADING GROUP 1 FACE 82
  0
3DFACE
  8
Fixed Shading
 62
  9
 10
        0.01000
 20
       -0.30000
 30
       -1.03284
 11
        0.01400
 21
       -0.30000
 31
       -1.03284
 12
        0.01000
 22
       -0.58284
 32
       -0.75000
 13
        0.01000
 23
       -0.58284
 33
       -0.75000
999
Fixed Shading:SHADING GROUP 1 FACE 83
  0
3DFACE
  8
Fixed Shading
 62
  9
 10
        0.01000
 20
       -0.30000
 30
       -0.46716
 11
        0.01400
 21
       -0.58284
 31
       -0.75000
 12
        0.01000
 22
       -0.58284
 32
       -0.75000
 13
        0.01000
 23
       -0.58284
 33
       -0.75000
999
Fixed Shading:Mir-SHADING GROUP 1 FACE 83
  0
3DFACE
  8
Fixed Shading
 62
  9
 10
        0.01000
 20
       -0.58284
 30
       -0.75000
 11
        0.01400
 21
       -0.58284
 31
       -0.75000
 12
        0.01000
 22
       -0.30000
 32
       -0.46716
 13
        0.01000
 23
       -0.30000
 33
       -0.46716
999
Fixed Shading:SHADING GROUP 1 FACE 84
  0
3DFACE
  8
Fixed Shading
 62
  9
 10
        0.01000
 20
       -0.01716
 30
       -0.75000
 11
        0.01400
 21
       -0.30000
 31
       -0.46716
 12
        0.01000
 22
       -0.30000
 32
       -0.46716
 13
        0.01000
 23
       -0.30000
 33
       -0.46716
999
Fixed Shading:Mir-SHADING GROUP 1 FACE 84
  0
3DFACE
  8
Fixed Shading
 62
  9
 10
        0.01000
 20
       -0.30000
 30
       -0.46716
 11
        0.01400
 21
       -0.30000
 31
       -0.46716
 12
        0.01000
 22
       -0.01716
 32
       -0.75000
 13
        0.01000
 23
       -0.01716
 33
       -0.75000
999
Fixed Shading:SHADING GROUP 1 FACE 85
  0
3DFACE
  8
Fixed Shading
 62
  9
 10
       -0.49000
 20
       -0.01716
 30
       -0.75000
 11
       -0.49000
 21
       -0.30000
 31
       -0.46716
 12
       -0.49000
 22
       -0.58284
 32
       -0.75000
 13
       -0.49000
 23
       -0.30000
 33
       -1.03284
999
Fixed Shading:Mir-SHADING GROUP 1 FACE 85
  0
3DFACE
  8
Fixed Shading
 62
  9
 10
       -0.49000
 20
       -0.30000
 30
       -1.03284
 11
       -0.49000
 21
       -0.58284
 31
       -0.75000
 12
       -0.49000
 22
       -0.30000
 32
       -0.46716
 13
       -0.49000
 23
       -0.01716
 33
       -0.75000
999
Fixed Shading:SHADING GROUP 1 FACE 86
  0
3DFACE
  8
Fixed Shading
 62
  9
 10
       -0.48600
 20
       -0.30000
 30
       -1.03284
 11
       -0.48600
 21
       -0.58284
 31
       -0.75000
 12
       -0.48600
 22
       -0.30000
 32
       -0.46716
 13
       -0.48600
 23
       -0.01716
 33
       -0.75000
999
Fixed Shading:Mir-SHADING GROUP 1 FACE 86
  0
3DFACE
  8
Fixed Shading
 62
  9
 10
       -0.48600
 20
       -0.01716
 30
       -0.75000
 11
       -0.48600
 21
       -0.30000
 31
       -0.46716
 12
       -0.48600
 22
       -0.58284
 32
       -0.75000
 13
       -0.48600
 23
       -0.30000
 33
       -1.03284
999
Fixed Shading:SHADING GROUP 1 FACE 87
  0
3DFACE
  8
Fixed Shading
 62
  9
 10
       -0.49000
 20
       -0.30000
 30
       -1.03284
 11
       -0.48600
 21
       -0.01716
 31
       -0.75000
 12
       -0.49000
 22
       -0.01716
 32
       -0.75000
 13
       -0.49000
 23
       -0.01716
 33
       -0.75000
999
Fixed Shading:Mir-SHADING GROUP 1 FACE 87
  0
3DFACE
  8
Fixed Shading
 62
  9
 10
       -0.49000
 20
       -0.01716
 30
       -0.75000
 11
       -0.48600
 21
       -0.01716
 31
       -0.75000
 12
       -0.49000
 22
       -0.30000
 32
       -1.03284
 13
       -0.49000
 23
       -0.30000
 33
       -1.03284
999
Fixed Shading:SHADING GROUP 1 FACE 88
  0
3DFACE
  8
Fixed Shading
 62
  9
 10
       -0.49000
 20
       -0.58284
 30
       -0.75000
 11
       -0.48600
 21
       -0.30000
 31
       -1.03284
 12
       -0.49000
 22
       -0.30000
 32
       -1.03284
 13
       -0.49000
 23
       -0.30000
 33
       -1.03284
999
Fixed Shading:Mir-SHADING GROUP 1 FACE 88
  0
3DFACE
  8
Fixed Shading
 62
  9
 10
       -0.49000
 20
       -0.30000
 30
       -1.03284
 11
       -0.48600
 21
       -0.30000
 31
       -1.03284
 12
       -0.49000
 22
       -0.58284
 32
       -0.75000
 13
       -0.49000
 23
       -0.58284
 33
       -0.75000
999
Fixed Shading:SHADING GROUP 1 FACE 89
  0
3DFACE
  8
Fixed Shading
 62
  9
 10
       -0.49000
 20
       -0.30000
 30
       -0.46716
 11
       -0.48600
 21
       -0.58284
 31
       -0.75000
 12
       -0.49000
 22
       -0.58284
 32
       -0.75000
 13
       -0.49000
 23
       -0.58284
 33
       -0.75000
999
Fixed Shading:Mir-SHADING GROUP 1 FACE 89
  0
3DFACE
  8
Fixed Shading
 62
  9
 10
       -0.49000
 20
       -0.58284
 30
       -0.75000
 11
       -0.48600
 21
       -0.58284
 31
       -0.75000
 12
       -0.49000
 22
       -0.30000
 32
       -0.46716
 13
       -0.49000
 23
       -0.30000
 33
       -0.46716
999
Fixed Shading:SHADING GROUP 1 FACE 90
  0
3DFACE
  8
Fixed Shading
 62
  9
 10
       -0.49000
 20
       -0.01716
 30
       -0.75000
 11
       -0.48600
 21
       -0.30000
 31
       -0.46716
 12
       -0.49000
 22
       -0.30000
 32
       -0.46716
 13
       -0.49000
 23
       -0.30000
 33
       -0.46716
999
Fixed Shading:Mir-SHADING GROUP 1 FACE 90
  0
3DFACE
  8
Fixed Shading
 62
  9
 10
       -0.49000
 20
       -0.30000
 30
       -0.46716
 11
       -0.48600
 21
       -0.30000
 31
       -0.46716
 12
       -0.49000
 22
       -0.01716
 32
       -0.75000
 13
       -0.49000
 23
       -0.01716
 33
       -0.75000
999
Fixed Shading:SHADING GROUP 1 FACE 91
  0
3DFACE
  8
Fixed Shading
 62
  9
 10
       -0.99000
 20
       -0.01716
 30
       -0.75000
 11
       -0.99000
 21
       -0.30000
 31
       -0.46716
 12
       -0.99000
 22
       -0.58284
 32
       -0.75000
 13
       -0.99000
 23
       -0.30000
 33
       -1.03284
999
Fixed Shading:Mir-SHADING GROUP 1 FACE 91
  0
3DFACE
  8
Fixed Shading
 62
  9
 10
       -0.99000
 20
       -0.30000
 30
       -1.03284
 11
       -0.99000
 21
       -0.58284
 31
       -0.75000
 12
       -0.99000
 22
       -0.30000
 32
       -0.46716
 13
       -0.99000
 23
       -0.01716
 33
       -0.75000
999
Fixed Shading:SHADING GROUP 1 FACE 92
  0
3DFACE
  8
Fixed Shading
 62
  9
 10
       -0.98600
 20
       -0.30000
 30
       -1.03284
 11
       -0.98600
 21
       -0.58284
 31
       -0.75000
 12
       -0.98600
 22
       -0.30000
 32
       -0.46716
 13
       -0.98600
 23
       -0.01716
 33
       -0.75000
999
Fixed Shading:Mir-SHADING GROUP 1 FACE 92
  0
3DFACE
  8
Fixed Shading
 62
  9
 10
       -0.98600
 20
       -0.01716
 30
       -0.75000
 11
       -0.98600
 21
       -0.30000
 31
       -0.46716
 12
       -0.98600
 22
       -0.58284
 32
       -0.75000
 13
       -0.98600
 23
       -0.30000
 33
       -1.03284
999
Fixed Shading:SHADING GROUP 1 FACE 93
  0
3DFACE
  8
Fixed Shading
 62
  9
 10
       -0.99000
 20
       -0.30000
 30
       -1.03284
 11
       -0.98600
 21
       -0.01716
 31
       -0.75000
 12
       -0.99000
 22
       -0.01716
 32
       -0.75000
 13
       -0.99000
 23
       -0.01716
 33
       -0.75000
999
Fixed Shading:Mir-SHADING GROUP 1 FACE 93
  0
3DFACE
  8
Fixed Shading
 62
  9
 10
       -0.99000
 20
       -0.01716
 30
       -0.75000
 11
       -0.98600
 21
       -0.01716
 31
       -0.75000
 12
       -0.99000
 22
       -0.30000
 32
       -1.03284
 13
       -0.99000
 23
       -0.30000
 33
       -1.03284
999
Fixed Shading:SHADING GROUP 1 FACE 94
  0
3DFACE
  8
Fixed Shading
 62
  9
 10
       -0.99000
 20
       -0.58284
 30
       -0.75000
 11
       -0.98600
 21
       -0.30000
 31
       -1.03284
 12
       -0.99000
 22
       -0.30000
 32
       -1.03284
 13
       -0.99000
 23
       -0.30000
 33
       -1.03284
999
Fixed Shading:Mir-SHADING GROUP 1 FACE 94
  0
3DFACE
  8
Fixed Shading
 62
  9
 10
       -0.99000
 20
       -0.30000
 30
       -1.03284
 11
       -0.98600
 21
       -0.30000
 31
       -1.03284
 12
       -0.99000
 22
       -0.58284
 32
       -0.75000
 13
       -0.99000
 23
       -0.58284
 33
       -0.75000
999
Fixed Shading:SHADING GROUP 1 FACE 95
  0
3DFACE
  8
Fixed Shading
 62
  9
 10
       -0.99000
 20
       -0.30000
 30
       -0.46716
 11
       -0.98600
 21
       -0.58284
 31
       -0.75000
 12
       -0.99000
 22
       -0.58284
 32
       -0.75000
 13
       -0.99000
 23
       -0.58284
 33
       -0.75000
999
Fixed Shading:Mir-SHADING GROUP 1 FACE 95
  0
3DFACE
  8
Fixed Shading
 62
  9
 10
       -0.99000
 20
       -0.58284
 30
       -0.75000
 11
       -0.98600
 21
       -0.58284
 31
       -0.75000
 12
       -0.99000
 22
       -0.30000
 32
       -0.46716
 13
       -0.99000
 23
       -0.30000
 33
       -0.46716
999
Fixed Shading:SHADING GROUP 1 FACE 96
  0
3DFACE
  8
Fixed Shading
 62
  9
 10
       -0.99000
 20
       -0.01716
 30
       -0.75000
 11
       -0.98600
 21
       -0.30000
 31
       -0.46716
 12
       -0.99000
 22
       -0.30000
 32
       -0.46716
 13
       -0.99000
 23
       -0.30000
 33
       -0.46716
999
Fixed Shading:Mir-SHADING GROUP 1 FACE 96
  0
3DFACE
  8
Fixed Shading
 62
  9
 10
       -0.99000
 20
       -0.30000
 30
       -0.46716
 11
       -0.98600
 21
       -0.30000
 31
       -0.46716
 12
       -0.99000
 22
       -0.01716
 32
       -0.75000
 13
       -0.99000
 23
       -0.01716
 33
       -0.75000
999
Fixed Shading:SHADING GROUP 1 FACE 97
  0
3DFACE
  8
Fixed Shading
 62
  9
 10
       -1.49000
 20
       -0.01716
 30
       -0.75000
 11
       -1.49000
 21
       -0.30000
 31
       -0.46716
 12
       -1.49000
 22
       -0.58284
 32
       -0.75000
 13
       -1.49000
 23
       -0.30000
 33
       -1.03284
999
Fixed Shading:Mir-SHADING GROUP 1 FACE 97
  0
3DFACE
  8
Fixed Shading
 62
  9
 10
       -1.49000
 20
       -0.30000
 30
       -1.03284
 11
       -1.49000
 21
       -0.58284
 31
       -0.75000
 12
       -1.49000
 22
       -0.30000
 32
       -0.46716
 13
       -1.49000
 23
       -0.01716
 33
       -0.75000
999
Fixed Shading:SHADING GROUP 1 FACE 98
  0
3DFACE
  8
Fixed Shading
 62
  9
 10
       -1.48600
 20
       -0.30000
 30
       -1.03284
 11
       -1.48600
 21
       -0.58284
 31
       -0.75000
 12
       -1.48600
 22
       -0.30000
 32
       -0.46716
 13
       -1.48600
 23
       -0.01716
 33
       -0.75000
999
Fixed Shading:Mir-SHADING GROUP 1 FACE 98
  0
3DFACE
  8
Fixed Shading
 62
  9
 10
       -1.48600
 20
       -0.01716
 30
       -0.75000
 11
       -1.48600
 21
       -0.30000
 31
       -0.46716
 12
       -1.48600
 22
       -0.58284
 32
       -0.75000
 13
       -1.48600
 23
       -0.30000
 33
       -1.03284
999
Fixed Shading:SHADING GROUP 1 FACE 99
  0
3DFACE
  8
Fixed Shading
 62
  9
 10
       -1.49000
 20
       -0.30000
 30
       -1.03284
 11
       -1.48600
 21
       -0.01716
 31
       -0.75000
 12
       -1.49000
 22
       -0.01716
 32
       -0.75000
 13
       -1.49000
 23
       -0.01716
 33
       -0.75000
999
Fixed Shading:Mir-SHADING GROUP 1 FACE 99
  0
3DFACE
  8
Fixed Shading
 62
  9
 10
       -1.49000
 20
       -0.01716
 30
       -0.75000
 11
       -1.48600
 21
       -0.01716
 31
       -0.75000
 12
       -1.49000
 22
       -0.30000
 32
       -1.03284
 13
       -1.49000
 23
       -0.30000
 33
       -1.03284
999
Fixed Shading:SHADING GROUP 1 FACE 100
  0
3DFACE
  8
Fixed Shading
 62
  9
 10
       -1.49000
 20
       -0.58284
 30
       -0.75000
 11
       -1.48600
 21
       -0.30000
 31
       -1.03284
 12
       -1.49000
 22
       -0.30000
 32
       -1.03284
 13
       -1.49000
 23
       -0.30000
 33
       -1.03284
999
Fixed Shading:Mir-SHADING GROUP 1 FACE 100
  0
3DFACE
  8
Fixed Shading
 62
  9
 10
       -1.49000
 20
       -0.30000
 30
       -1.03284
 11
       -1.48600
 21
       -0.30000
 31
       -1.03284
 12
       -1.49000
 22
       -0.58284
 32
       -0.75000
 13
       -1.49000
 23
       -0.58284
 33
       -0.75000
999
Fixed Shading:SHADING GROUP 1 FACE 101
  0
3DFACE
  8
Fixed Shading
 62
  9
 10
       -1.49000
 20
       -0.30000
 30
       -0.46716
 11
       -1.48600
 21
       -0.58284
 31
       -0.75000
 12
       -1.49000
 22
       -0.58284
 32
       -0.75000
 13
       -1.49000
 23
       -0.58284
 33
       -0.75000
999
Fixed Shading:Mir-SHADING GROUP 1 FACE 101
  0
3DFACE
  8
Fixed Shading
 62
  9
 10
       -1.49000
 20
       -0.58284
 30
       -0.75000
 11
       -1.48600
 21
       -0.58284
 31
       -0.75000
 12
       -1.49000
 22
       -0.30000
 32
       -0.46716
 13
       -1.49000
 23
       -0.30000
 33
       -0.46716
999
Fixed Shading:SHADING GROUP 1 FACE 102
  0
3DFACE
  8
Fixed Shading
 62
  9
 10
       -1.49000
 20
       -0.01716
 30
       -0.75000
 11
       -1.48600
 21
       -0.30000
 31
       -0.46716
 12
       -1.49000
 22
       -0.30000
 32
       -0.46716
 13
       -1.49000
 23
       -0.30000
 33
       -0.46716
999
Fixed Shading:Mir-SHADING GROUP 1 FACE 102
  0
3DFACE
  8
Fixed Shading
 62
  9
 10
       -1.49000
 20
       -0.30000
 30
       -0.46716
 11
       -1.48600
 21
       -0.30000
 31
       -0.46716
 12
       -1.49000
 22
       -0.01716
 32
       -0.75000
 13
       -1.49000
 23
       -0.01716
 33
       -0.75000
999
Fixed Shading:SHADING GROUP 1 FACE 103
  0
3DFACE
  8
Fixed Shading
 62
  9
 10
       -1.99000
 20
       -0.01716
 30
       -0.75000
 11
       -1.99000
 21
       -0.30000
 31
       -0.46716
 12
       -1.99000
 22
       -0.58284
 32
       -0.75000
 13
       -1.99000
 23
       -0.30000
 33
       -1.03284
999
Fixed Shading:Mir-SHADING GROUP 1 FACE 103
  0
3DFACE
  8
Fixed Shading
 62
  9
 10
       -1.99000
 20
       -0.30000
 30
       -1.03284
 11
       -1.99000
 21
       -0.58284
 31
       -0.75000
 12
       -1.99000
 22
       -0.30000
 32
       -0.46716
 13
       -1.99000
 23
       -0.01716
 33
       -0.75000
999
Fixed Shading:SHADING GROUP 1 FACE 104
  0
3DFACE
  8
Fixed Shading
 62
  9
 10
       -1.98600
 20
       -0.30000
 30
       -1.03284
 11
       -1.98600
 21
       -0.58284
 31
       -0.75000
 12
       -1.98600
 22
       -0.30000
 32
       -0.46716
 13
       -1.98600
 23
       -0.01716
 33
       -0.75000
999
Fixed Shading:Mir-SHADING GROUP 1 FACE 104
  0
3DFACE
  8
Fixed Shading
 62
  9
 10
       -1.98600
 20
       -0.01716
 30
       -0.75000
 11
       -1.98600
 21
       -0.30000
 31
       -0.46716
 12
       -1.98600
 22
       -0.58284
 32
       -0.75000
 13
       -1.98600
 23
       -0.30000
 33
       -1.03284
999
Fixed Shading:SHADING GROUP 1 FACE 105
  0
3DFACE
  8
Fixed Shading
 62
  9
 10
       -1.99000
 20
       -0.30000
 30
       -1.03284
 11
       -1.98600
 21
       -0.01716
 31
       -0.75000
 12
       -1.99000
 22
       -0.01716
 32
       -0.75000
 13
       -1.99000
 23
       -0.01716
 33
       -0.75000
999
Fixed Shading:Mir-SHADING GROUP 1 FACE 105
  0
3DFACE
  8
Fixed Shading
 62
  9
 10
       -1.99000
 20
       -0.01716
 30
       -0.75000
 11
       -1.98600
 21
       -0.01716
 31
       -0.75000
 12
       -1.99000
 22
       -0.30000
 32
       -1.03284
 13
       -1.99000
 23
       -0.30000
 33
       -1.03284
999
Fixed Shading:SHADING GROUP 1 FACE 106
  0
3DFACE
  8
Fixed Shading
 62
  9
 10
       -1.99000
 20
       -0.58284
 30
       -0.75000
 11
       -1.98600
 21
       -0.30000
 31
       -1.03284
 12
       -1.99000
 22
       -0.30000
 32
       -1.03284
 13
       -1.99000
 23
       -0.30000
 33
       -1.03284
999
Fixed Shading:Mir-SHADING GROUP 1 FACE 106
  0
3DFACE
  8
Fixed Shading
 62
  9
 10
       -1.99000
 20
       -0.30000
 30
       -1.03284
 11
       -1.98600
 21
       -0.30000
 31
       -1.03284
 12
       -1.99000
 22
       -0.58284
 32
       -0.75000
 13
       -1.99000
 23
       -0.58284
 33
       -0.75000
999
Fixed Shading:SHADING GROUP 1 FACE 107
  0
3DFACE
  8
Fixed Shading
 62
  9
 10
       -1.99000
 20
       -0.30000
 30
       -0.46716
 11
       -1.98600
 21
       -0.58284
 31
       -0.75000
 12
       -1.99000
 22
       -0.58284
 32
       -0.75000
 13
       -1.99000
 23
       -0.58284
 33
       -0.75000
999
Fixed Shading:Mir-SHADING GROUP 1 FACE 107
  0
3DFACE
  8
Fixed Shading
 62
  9
 10
       -1.99000
 20
       -0.58284
 30
       -0.75000
 11
       -1.98600
 21
       -0.58284
 31
       -0.75000
 12
       -1.99000
 22
       -0.30000
 32
       -0.46716
 13
       -1.99000
 23
       -0.30000
 33
       -0.46716
999
Fixed Shading:SHADING GROUP 1 FACE 108
  0
3DFACE
  8
Fixed Shading
 62
  9
 10
       -1.99000
 20
       -0.01716
 30
       -0.75000
 11
       -1.98600
 21
       -0.30000
 31
       -0.46716
 12
       -1.99000
 22
       -0.30000
 32
       -0.46716
 13
       -1.99000
 23
       -0.30000
 33
       -0.46716
999
Fixed Shading:Mir-SHADING GROUP 1 FACE 108
  0
3DFACE
  8
Fixed Shading
 62
  9
 10
       -1.99000
 20
       -0.30000
 30
       -0.46716
 11
       -1.98600
 21
       -0.30000
 31
       -0.46716
 12
       -1.99000
 22
       -0.01716
 32
       -0.75000
 13
       -1.99000
 23
       -0.01716
 33
       -0.75000
999
Fixed Shading:SHADING GROUP 1 FACE 109
  0
3DFACE
  8
Fixed Shading
 62
  9
 10
        2.01000
 20
       -0.01716
 30
       -0.25000
 11
        2.01000
 21
       -0.30000
 31
        0.03284
 12
        2.01000
 22
       -0.58284
 32
       -0.25000
 13
        2.01000
 23
       -0.30000
 33
       -0.53284
999
Fixed Shading:Mir-SHADING GROUP 1 FACE 109
  0
3DFACE
  8
Fixed Shading
 62
  9
 10
        2.01000
 20
       -0.30000
 30
       -0.53284
 11
        2.01000
 21
       -0.58284
 31
       -0.25000
 12
        2.01000
 22
       -0.30000
 32
        0.03284
 13
        2.01000
 23
       -0.01716
 33
       -0.25000
999
Fixed Shading:SHADING GROUP 1 FACE 110
  0
3DFACE
  8
Fixed Shading
 62
  9
 10
        2.01400
 20
       -0.30000
 30
       -0.53284
 11
        2.01400
 21
       -0.58284
 31
       -0.25000
 12
        2.01400
 22
       -0.30000
 32
        0.03284
 13
        2.01400
 23
       -0.01716
 33
       -0.25000
999
Fixed Shading:Mir-SHADING GROUP 1 FACE 110
  0
3DFACE
  8
Fixed Shading
 62
  9
 10
        2.01400
 20
       -0.01716
 30
       -0.25000
 11
        2.01400
 21
       -0.30000
 31
        0.03284
 12
        2.01400
 22
       -0.58284
 32
       -0.25000
 13
        2.01400
 23
       -0.30000
 33
       -0.53284
999
Fixed Shading:SHADING GROUP 1 FACE 111
  0
3DFACE
  8
Fixed Shading
 62
  9
 10
        2.01000
 20
       -0.30000
 30
       -0.53284
 11
        2.01400
 21
       -0.01716
 31
       -0.25000
 12
        2.01000
 22
       -0.01716
 32
       -0.25000
 13
        2.01000
 23
       -0.01716
 33
       -0.25000
999
Fixed Shading:Mir-SHADING GROUP 1 FACE 111
  0
3DFACE
  8
Fixed Shading
 62
  9
 10
        2.01000
 20
       -0.01716
 30
       -0.25000
 11
        2.01400
 21
       -0.01716
 31
       -0.25000
 12
        2.01000
 22
       -0.30000
 32
       -0.53284
 13
        2.01000
 23
       -0.30000
 33
       -0.53284
999
Fixed Shading:SHADING GROUP 1 FACE 112
  0
3DFACE
  8
Fixed Shading
 62
  9
 10
        2.01000
 20
       -0.58284
 30
       -0.25000
 11
        2.01400
 21
       -0.30000
 31
       -0.53284
 12
        2.01000
 22
       -0.30000
 32
       -0.53284
 13
        2.01000
 23
       -0.30000
 33
       -0.53284
999
Fixed Shading:Mir-SHADING GROUP 1 FACE 112
  0
3DFACE
  8
Fixed Shading
 62
  9
 10
        2.01000
 20
       -0.30000
 30
       -0.53284
 11
        2.01400
 21
       -0.30000
 31
       -0.53284
 12
        2.01000
 22
       -0.58284
 32
       -0.25000
 13
        2.01000
 23
       -0.58284
 33
       -0.25000
999
Fixed Shading:SHADING GROUP 1 FACE 113
  0
3DFACE
  8
Fixed Shading
 62
  9
 10
        2.01000
 20
       -0.30000
 30
        0.03284
 11
        2.01400
 21
       -0.58284
 31
       -0.25000
 12
        2.01000
 22
       -0.58284
 32
       -0.25000
 13
        2.01000
 23
       -0.58284
 33
       -0.25000
999
Fixed Shading:Mir-SHADING GROUP 1 FACE 113
  0
3DFACE
  8
Fixed Shading
 62
  9
 10
        2.01000
 20
       -0.58284
 30
       -0.25000
 11
        2.01400
 21
       -0.58284
 31
       -0.25000
 12
        2.01000
 22
       -0.30000
 32
        0.03284
 13
        2.01000
 23
       -0.30000
 33
        0.03284
999
Fixed Shading:SHADING GROUP 1 FACE 114
  0
3DFACE
  8
Fixed Shading
 62
  9
 10
        2.01000
 20
       -0.01716
 30
       -0.25000
 11
        2.01400
 21
       -0.30000
 31
        0.03284
 12
        2.01000
 22
       -0.30000
 32
        0.03284
 13
        2.01000
 23
       -0.30000
 33
        0.03284
999
Fixed Shading:Mir-SHADING GROUP 1 FACE 114
  0
3DFACE
  8
Fixed Shading
 62
  9
 10
        2.01000
 20
       -0.30000
 30
        0.03284
 11
        2.01400
 21
       -0.30000
 31
        0.03284
 12
        2.01000
 22
       -0.01716
 32
       -0.25000
 13
        2.01000
 23
       -0.01716
 33
       -0.25000
999
Fixed Shading:SHADING GROUP 1 FACE 115
  0
3DFACE
  8
Fixed Shading
 62
  9
 10
        1.51000
 20
       -0.01716
 30
       -0.25000
 11
        1.51000
 21
       -0.30000
 31
        0.03284
 12
        1.51000
 22
       -0.58284
 32
       -0.25000
 13
        1.51000
 23
       -0.30000
 33
       -0.53284
999
Fixed Shading:Mir-SHADING GROUP 1 FACE 115
  0
3DFACE
  8
Fixed Shading
 62
  9
 10
        1.51000
 20
       -0.30000
 30
       -0.53284
 11
        1.51000
 21
       -0.58284
 31
       -0.25000
 12
        1.51000
 22
       -0.30000
 32
        0.03284
 13
        1.51000
 23
       -0.01716
 33
       -0.25000
999
Fixed Shading:SHADING GROUP 1 FACE 116
  0
3DFACE
  8
Fixed Shading
 62
  9
 10
        1.51400
 20
       -0.30000
 30
       -0.53284
 11
        1.51400
 21
       -0.58284
 31
       -0.25000
 12
        1.51400
 22
       -0.30000
 32
        0.03284
 13
        1.51400
 23
       -0.01716
 33
       -0.25000
999
Fixed Shading:Mir-SHADING GROUP 1 FACE 116
  0
3DFACE
  8
Fixed Shading
 62
  9
 10
        1.51400
 20
       -0.01716
 30
       -0.25000
 11
        1.51400
 21
       -0.30000
 31
        0.03284
 12
        1.51400
 22
       -0.58284
 32
       -0.25000
 13
        1.51400
 23
       -0.30000
 33
       -0.53284
999
Fixed Shading:SHADING GROUP 1 FACE 117
  0
3DFACE
  8
Fixed Shading
 62
  9
 10
        1.51000
 20
       -0.30000
 30
       -0.53284
 11
        1.51400
 21
       -0.01716
 31
       -0.25000
 12
        1.51000
 22
       -0.01716
 32
       -0.25000
 13
        1.51000
 23
       -0.01716
 33
       -0.25000
999
Fixed Shading:Mir-SHADING GROUP 1 FACE 117
  0
3DFACE
  8
Fixed Shading
 62
  9
 10
        1.51000
 20
       -0.01716
 30
       -0.25000
 11
        1.51400
 21
       -0.01716
 31
       -0.25000
 12
        1.51000
 22
       -0.30000
 32
       -0.53284
 13
        1.51000
 23
       -0.30000
 33
       -0.53284
999
Fixed Shading:SHADING GROUP 1 FACE 118
  0
3DFACE
  8
Fixed Shading
 62
  9
 10
        1.51000
 20
       -0.58284
 30
       -0.25000
 11
        1.51400
 21
       -0.30000
 31
       -0.53284
 12
        1.51000
 22
       -0.30000
 32
       -0.53284
 13
        1.51000
 23
       -0.30000
 33
       -0.53284
999
Fixed Shading:Mir-SHADING GROUP 1 FACE 118
  0
3DFACE
  8
Fixed Shading
 62
  9
 10
        1.51000
 20
       -0.30000
 30
       -0.53284
 11
        1.51400
 21
       -0.30000
 31
       -0.53284
 12
        1.51000
 22
       -0.58284
 32
       -0.25000
 13
        1.51000
 23
       -0.58284
 33
       -0.25000
999
Fixed Shading:SHADING GROUP 1 FACE 119
  0
3DFACE
  8
Fixed Shading
 62
  9
 10
        1.51000
 20
       -0.30000
 30
        0.03284
 11
        1.51400
 21
       -0.58284
 31
       -0.25000
 12
        1.51000
 22
       -0.58284
 32
       -0.25000
 13
        1.51000
 23
       -0.58284
 33
       -0.25000
999
Fixed Shading:Mir-SHADING GROUP 1 FACE 119
  0
3DFACE
  8
Fixed Shading
 62
  9
 10
        1.51000
 20
       -0.58284
 30
       -0.25000
 11
        1.51400
 21
       -0.58284
 31
       -0.25000
 12
        1.51000
 22
       -0.30000
 32
        0.03284
 13
        1.51000
 23
       -0.30000
 33
        0.03284
999
Fixed Shading:SHADING GROUP 1 FACE 120
  0
3DFACE
  8
Fixed Shading
 62
  9
 10
        1.51000
 20
       -0.01716
 30
       -0.25000
 11
        1.51400
 21
       -0.30000
 31
        0.03284
 12
        1.51000
 22
       -0.30000
 32
        0.03284
 13
        1.51000
 23
       -0.30000
 33
        0.03284
999
Fixed Shading:Mir-SHADING GROUP 1 FACE 120
  0
3DFACE
  8
Fixed Shading
 62
  9
 10
        1.51000
 20
       -0.30000
 30
        0.03284
 11
        1.51400
 21
       -0.30000
 31
        0.03284
 12
        1.51000
 22
       -0.01716
 32
       -0.25000
 13
        1.51000
 23
       -0.01716
 33
       -0.25000
999
Fixed Shading:SHADING GROUP 1 FACE 121
  0
3DFACE
  8
Fixed Shading
 62
  9
 10
        1.01000
 20
       -0.01716
 30
       -0.25000
 11
        1.01000
 21
       -0.30000
 31
        0.03284
 12
        1.01000
 22
       -0.58284
 32
       -0.25000
 13
        1.01000
 23
       -0.30000
 33
       -0.53284
999
Fixed Shading:Mir-SHADING GROUP 1 FACE 121
  0
3DFACE
  8
Fixed Shading
 62
  9
 10
        1.01000
 20
       -0.30000
 30
       -0.53284
 11
        1.01000
 21
       -0.58284
 31
       -0.25000
 12
        1.01000
 22
       -0.30000
 32
        0.03284
 13
[...]
 32
        1.25000
 13
        0.01000
 23
       -0.01716
 33
        1.25000
999
Fixed Shading:Mir-SHADING GROUP 1 FACE 297
  0
3DFACE
  8
Fixed Shading
 62
  9
 10
        0.01000
 20
       -0.01716
 30
        1.25000
 11
        0.01400
 21
       -0.01716
 31
        1.25000
 12
        0.01000
 22
       -0.30000
 32
        0.96716
 13
        0.01000
 23
       -0.30000
 33
        0.96716
999
Fixed Shading:SHADING GROUP 1 FACE 298
  0
3DFACE
  8
Fixed Shading
 62
  9
 10
        0.01000
 20
       -0.58284
 30
        1.25000
 11
        0.01400
 21
       -0.30000
 31
        0.96716
 12
        0.01000
 22
       -0.30000
 32
        0.96716
 13
        0.01000
 23
       -0.30000
 33
        0.96716
999
Fixed Shading:Mir-SHADING GROUP 1 FACE 298
  0
3DFACE
  8
Fixed Shading
 62
  9
 10
        0.01000
 20
       -0.30000
 30
        0.96716
 11
        0.01400
 21
       -0.30000
 31
        0.96716
 12
        0.01000
 22
       -0.58284
 32
        1.25000
 13
        0.01000
 23
       -0.58284
 33
        1.25000
999
Fixed Shading:SHADING GROUP 1 FACE 299
  0
3DFACE
  8
Fixed Shading
 62
  9
 10
        0.01000
 20
       -0.30000
 30
        1.53284
 11
        0.01400
 21
       -0.58284
 31
        1.25000
 12
        0.01000
 22
       -0.58284
 32
        1.25000
 13
        0.01000
 23
       -0.58284
 33
        1.25000
999
Fixed Shading:Mir-SHADING GROUP 1 FACE 299
  0
3DFACE
  8
Fixed Shading
 62
  9
 10
        0.01000
 20
       -0.58284
 30
        1.25000
 11
        0.01400
 21
       -0.58284
 31
        1.25000
 12
        0.01000
 22
       -0.30000
 32
        1.53284
 13
        0.01000
 23
       -0.30000
 33
        1.53284
999
Fixed Shading:SHADING GROUP 1 FACE 300
  0
3DFACE
  8
Fixed Shading
 62
  9
 10
        0.01000
 20
       -0.01716
 30
        1.25000
 11
        0.01400
 21
       -0.30000
 31
        1.53284
 12
        0.01000
 22
       -0.30000
 32
        1.53284
 13
        0.01000
 23
       -0.30000
 33
        1.53284
999
Fixed Shading:Mir-SHADING GROUP 1 FACE 300
  0
3DFACE
  8
Fixed Shading
 62
  9
 10
        0.01000
 20
       -0.30000
 30
        1.53284
 11
        0.01400
 21
       -0.30000
 31
        1.53284
 12
        0.01000
 22
       -0.01716
 32
        1.25000
 13
        0.01000
 23
       -0.01716
 33
        1.25000
999
Fixed Shading:SHADING GROUP 1 FACE 301
  0
3DFACE
  8
Fixed Shading
 62
  9
 10
       -0.49000
 20
       -0.01716
 30
        1.25000
 11
       -0.49000
 21
       -0.30000
 31
        1.53284
 12
       -0.49000
 22
       -0.58284
 32
        1.25000
 13
       -0.49000
 23
       -0.30000
 33
        0.96716
999
Fixed Shading:Mir-SHADING GROUP 1 FACE 301
  0
3DFACE
  8
Fixed Shading
 62
  9
 10
       -0.49000
 20
       -0.30000
 30
        0.96716
 11
       -0.49000
 21
       -0.58284
 31
        1.25000
 12
       -0.49000
 22
       -0.30000
 32
        1.53284
 13
       -0.49000
 23
       -0.01716
 33
        1.25000
999
Fixed Shading:SHADING GROUP 1 FACE 302
  0
3DFACE
  8
Fixed Shading
 62
  9
 10
       -0.48600
 20
       -0.30000
 30
        0.96716
 11
       -0.48600
 21
       -0.58284
 31
        1.25000
 12
       -0.48600
 22
       -0.30000
 32
        1.53284
 13
       -0.48600
 23
       -0.01716
 33
        1.25000
999
Fixed Shading:Mir-SHADING GROUP 1 FACE 302
  0
3DFACE
  8
Fixed Shading
 62
  9
 10
       -0.48600
 20
       -0.01716
 30
        1.25000
 11
       -0.48600
 21
       -0.30000
 31
        1.53284
 12
       -0.48600
 22
       -0.58284
 32
        1.25000
 13
       -0.48600
 23
       -0.30000
 33
        0.96716
999
Fixed Shading:SHADING GROUP 1 FACE 303
  0
3DFACE
  8
Fixed Shading
 62
  9
 10
       -0.49000
 20
       -0.30000
 30
        0.96716
 11
       -0.48600
 21
       -0.01716
 31
        1.25000
 12
       -0.49000
 22
       -0.01716
 32
        1.25000
 13
       -0.49000
 23
       -0.01716
 33
        1.25000
999
Fixed Shading:Mir-SHADING GROUP 1 FACE 303
  0
3DFACE
  8
Fixed Shading
 62
  9
 10
       -0.49000
 20
       -0.01716
 30
        1.25000
 11
       -0.48600
 21
       -0.01716
 31
        1.25000
 12
       -0.49000
 22
       -0.30000
 32
        0.96716
 13
       -0.49000
 23
       -0.30000
 33
        0.96716
999
Fixed Shading:SHADING GROUP 1 FACE 304
  0
3DFACE
  8
Fixed Shading
 62
  9
 10
       -0.49000
 20
       -0.58284
 30
        1.25000
 11
       -0.48600
 21
       -0.30000
 31
        0.96716
 12
       -0.49000
 22
       -0.30000
 32
        0.96716
 13
       -0.49000
 23
       -0.30000
 33
        0.96716
999
Fixed Shading:Mir-SHADING GROUP 1 FACE 304
  0
3DFACE
  8
Fixed Shading
 62
  9
 10
       -0.49000
 20
       -0.30000
 30
        0.96716
 11
       -0.48600
 21
       -0.30000
 31
        0.96716
 12
       -0.49000
 22
       -0.58284
 32
        1.25000
 13
       -0.49000
 23
       -0.58284
 33
        1.25000
999
Fixed Shading:SHADING GROUP 1 FACE 305
  0
3DFACE
  8
Fixed Shading
 62
  9
 10
       -0.49000
 20
       -0.30000
 30
        1.53284
 11
       -0.48600
 21
       -0.58284
 31
        1.25000
 12
       -0.49000
 22
       -0.58284
 32
        1.25000
 13
       -0.49000
 23
       -0.58284
 33
        1.25000
999
Fixed Shading:Mir-SHADING GROUP 1 FACE 305
  0
3DFACE
  8
Fixed Shading
 62
  9
 10
       -0.49000
 20
       -0.58284
 30
        1.25000
 11
       -0.48600
 21
       -0.58284
 31
        1.25000
 12
       -0.49000
 22
       -0.30000
 32
        1.53284
 13
       -0.49000
 23
       -0.30000
 33
        1.53284
999
Fixed Shading:SHADING GROUP 1 FACE 306
  0
3DFACE
  8
Fixed Shading
 62
  9
 10
       -0.49000
 20
       -0.01716
 30
        1.25000
 11
       -0.48600
 21
       -0.30000
 31
        1.53284
 12
       -0.49000
 22
       -0.30000
 32
        1.53284
 13
       -0.49000
 23
       -0.30000
 33
        1.53284
999
Fixed Shading:Mir-SHADING GROUP 1 FACE 306
  0
3DFACE
  8
Fixed Shading
 62
  9
 10
       -0.49000
 20
       -0.30000
 30
        1.53284
 11
       -0.48600
 21
       -0.30000
 31
        1.53284
 12
       -0.49000
 22
       -0.01716
 32
        1.25000
 13
       -0.49000
 23
       -0.01716
 33
        1.25000
999
Fixed Shading:SHADING GROUP 1 FACE 307
  0
3DFACE
  8
Fixed Shading
 62
  9
 10
       -0.99000
 20
       -0.01716
 30
        1.25000
 11
       -0.99000
 21
       -0.30000
 31
        1.53284
 12
       -0.99000
 22
       -0.58284
 32
        1.25000
 13
       -0.99000
 23
       -0.30000
 33
        0.96716
999
Fixed Shading:Mir-SHADING GROUP 1 FACE 307
  0
3DFACE
  8
Fixed Shading
 62
  9
 10
       -0.99000
 20
       -0.30000
 30
        0.96716
 11
       -0.99000
 21
       -0.58284
 31
        1.25000
 12
       -0.99000
 22
       -0.30000
 32
        1.53284
 13
       -0.99000
 23
       -0.01716
 33
        1.25000
999
Fixed Shading:SHADING GROUP 1 FACE 308
  0
3DFACE
  8
Fixed Shading
 62
  9
 10
       -0.98600
 20
       -0.30000
 30
        0.96716
 11
       -0.98600
 21
       -0.58284
 31
        1.25000
 12
       -0.98600
 22
       -0.30000
 32
        1.53284
 13
       -0.98600
 23
       -0.01716
 33
        1.25000
999
Fixed Shading:Mir-SHADING GROUP 1 FACE 308
  0
3DFACE
  8
Fixed Shading
 62
  9
 10
       -0.98600
 20
       -0.01716
 30
        1.25000
 11
       -0.98600
 21
       -0.30000
 31
        1.53284
 12
       -0.98600
 22
       -0.58284
 32
        1.25000
 13
       -0.98600
 23
       -0.30000
 33
        0.96716
999
Fixed Shading:SHADING GROUP 1 FACE 309
  0
3DFACE
  8
Fixed Shading
 62
  9
 10
       -0.99000
 20
       -0.30000
 30
        0.96716
 11
       -0.98600
 21
       -0.01716
 31
        1.25000
 12
       -0.99000
 22
       -0.01716
 32
        1.25000
 13
       -0.99000
 23
       -0.01716
 33
        1.25000
999
Fixed Shading:Mir-SHADING GROUP 1 FACE 309
  0
3DFACE
  8
Fixed Shading
 62
  9
 10
       -0.99000
 20
       -0.01716
 30
        1.25000
 11
       -0.98600
 21
       -0.01716
 31
        1.25000
 12
       -0.99000
 22
       -0.30000
 32
        0.96716
 13
       -0.99000
 23
       -0.30000
 33
        0.96716
999
Fixed Shading:SHADING GROUP 1 FACE 310
  0
3DFACE
  8
Fixed Shading
 62
  9
 10
       -0.99000
 20
       -0.58284
 30
        1.25000
 11
       -0.98600
 21
       -0.30000
 31
        0.96716
 12
       -0.99000
 22
       -0.30000
 32
        0.96716
 13
       -0.99000
 23
       -0.30000
 33
        0.96716
999
Fixed Shading:Mir-SHADING GROUP 1 FACE 310
  0
3DFACE
  8
Fixed Shading
 62
  9
 10
       -0.99000
 20
       -0.30000
 30
        0.96716
 11
       -0.98600
 21
       -0.30000
 31
        0.96716
 12
       -0.99000
 22
       -0.58284
 32
        1.25000
 13
       -0.99000
 23
       -0.58284
 33
        1.25000
999
Fixed Shading:SHADING GROUP 1 FACE 311
  0
3DFACE
  8
Fixed Shading
 62
  9
 10
       -0.99000
 20
       -0.30000
 30
        1.53284
 11
       -0.98600
 21
       -0.58284
 31
        1.25000
 12
       -0.99000
 22
       -0.58284
 32
        1.25000
 13
       -0.99000
 23
       -0.58284
 33
        1.25000
999
Fixed Shading:Mir-SHADING GROUP 1 FACE 311
  0
3DFACE
  8
Fixed Shading
 62
  9
 10
       -0.99000
 20
       -0.58284
 30
        1.25000
 11
       -0.98600
 21
       -0.58284
 31
        1.25000
 12
       -0.99000
 22
       -0.30000
 32
        1.53284
 13
       -0.99000
 23
       -0.30000
 33
        1.53284
999
Fixed Shading:SHADING GROUP 1 FACE 312
  0
3DFACE
  8
Fixed Shading
 62
  9
 10
       -0.99000
 20
       -0.01716
 30
        1.25000
 11
       -0.98600
 21
       -0.30000
 31
        1.53284
 12
       -0.99000
 22
       -0.30000
 32
        1.53284
 13
       -0.99000
 23
       -0.30000
 33
        1.53284
999
Fixed Shading:Mir-SHADING GROUP 1 FACE 312
  0
3DFACE
  8
Fixed Shading
 62
  9
 10
       -0.99000
 20
       -0.30000
 30
        1.53284
 11
       -0.98600
 21
       -0.30000
 31
        1.53284
 12
       -0.99000
 22
       -0.01716
 32
        1.25000
 13
       -0.99000
 23
       -0.01716
 33
        1.25000
999
Fixed Shading:SHADING GROUP 1 FACE 313
  0
3DFACE
  8
Fixed Shading
 62
  9
 10
       -1.49000
 20
       -0.01716
 30
        1.25000
 11
       -1.49000
 21
       -0.30000
 31
        1.53284
 12
       -1.49000
 22
       -0.58284
 32
        1.25000
 13
       -1.49000
 23
       -0.30000
 33
        0.96716
999
Fixed Shading:Mir-SHADING GROUP 1 FACE 313
  0
3DFACE
  8
Fixed Shading
 62
  9
 10
       -1.49000
 20
       -0.30000
 30
        0.96716
 11
       -1.49000
 21
       -0.58284
 31
        1.25000
 12
       -1.49000
 22
       -0.30000
 32
        1.53284
 13
       -1.49000
 23
       -0.01716
 33
        1.25000
999
Fixed Shading:SHADING GROUP 1 FACE 314
  0
3DFACE
  8
Fixed Shading
 62
  9
 10
       -1.48600
 20
       -0.30000
 30
        0.96716
 11
       -1.48600
 21
       -0.58284
 31
        1.25000
 12
       -1.48600
 22
       -0.30000
 32
        1.53284
 13
       -1.48600
 23
       -0.01716
 33
        1.25000
999
Fixed Shading:Mir-SHADING GROUP 1 FACE 314
  0
3DFACE
  8
Fixed Shading
 62
  9
 10
       -1.48600
 20
       -0.01716
 30
        1.25000
 11
       -1.48600
 21
       -0.30000
 31
        1.53284
 12
       -1.48600
 22
       -0.58284
 32
        1.25000
 13
       -1.48600
 23
       -0.30000
 33
        0.96716
999
Fixed Shading:SHADING GROUP 1 FACE 315
  0
3DFACE
  8
Fixed Shading
 62
  9
 10
       -1.49000
 20
       -0.30000
 30
        0.96716
 11
       -1.48600
 21
       -0.01716
 31
        1.25000
 12
       -1.49000
 22
       -0.01716
 32
        1.25000
 13
       -1.49000
 23
       -0.01716
 33
        1.25000
999
Fixed Shading:Mir-SHADING GROUP 1 FACE 315
  0
3DFACE
  8
Fixed Shading
 62
  9
 10
       -1.49000
 20
       -0.01716
 30
        1.25000
 11
       -1.48600
 21
       -0.01716
 31
        1.25000
 12
       -1.49000
 22
       -0.30000
 32
        0.96716
 13
       -1.49000
 23
       -0.30000
 33
        0.96716
999
Fixed Shading:SHADING GROUP 1 FACE 316
  0
3DFACE
  8
Fixed Shading
 62
  9
 10
       -1.49000
 20
       -0.58284
 30
        1.25000
 11
       -1.48600
 21
       -0.30000
 31
        0.96716
 12
       -1.49000
 22
       -0.30000
 32
        0.96716
 13
       -1.49000
 23
       -0.30000
 33
        0.96716
999
Fixed Shading:Mir-SHADING GROUP 1 FACE 316
  0
3DFACE
  8
Fixed Shading
 62
  9
 10
       -1.49000
 20
       -0.30000
 30
        0.96716
 11
       -1.48600
 21
       -0.30000
 31
        0.96716
 12
       -1.49000
 22
       -0.58284
 32
        1.25000
 13
       -1.49000
 23
       -0.58284
 33
        1.25000
999
Fixed Shading:SHADING GROUP 1 FACE 317
  0
3DFACE
  8
Fixed Shading
 62
  9
 10
       -1.49000
 20
       -0.30000
 30
        1.53284
 11
       -1.48600
 21
       -0.58284
 31
        1.25000
 12
       -1.49000
 22
       -0.58284
 32
        1.25000
 13
       -1.49000
 23
       -0.58284
 33
        1.25000
999
Fixed Shading:Mir-SHADING GROUP 1 FACE 317
  0
3DFACE
  8
Fixed Shading
 62
  9
 10
       -1.49000
 20
       -0.58284
 30
        1.25000
 11
       -1.48600
 21
       -0.58284
 31
        1.25000
 12
       -1.49000
 22
       -0.30000
 32
        1.53284
 13
       -1.49000
 23
       -0.30000
 33
        1.53284
999
Fixed Shading:SHADING GROUP 1 FACE 318
  0
3DFACE
  8
Fixed Shading
 62
  9
 10
       -1.49000
 20
       -0.01716
 30
        1.25000
 11
       -1.48600
 21
       -0.30000
 31
        1.53284
 12
       -1.49000
 22
       -0.30000
 32
        1.53284
 13
       -1.49000
 23
       -0.30000
 33
        1.53284
999
Fixed Shading:Mir-SHADING GROUP 1 FACE 318
  0
3DFACE
  8
Fixed Shading
 62
  9
 10
       -1.49000
 20
       -0.30000
 30
        1.53284
 11
       -1.48600
 21
       -0.30000
 31
        1.53284
 12
       -1.49000
 22
       -0.01716
 32
        1.25000
 13
       -1.49000
 23
       -0.01716
 33
        1.25000
999
Fixed Shading:SHADING GROUP 1 FACE 319
  0
3DFACE
  8
Fixed Shading
 62
  9
 10
       -1.99000
 20
       -0.01716
 30
        1.25000
 11
       -1.99000
 21
       -0.30000
 31
        1.53284
 12
       -1.99000
 22
       -0.58284
 32
        1.25000
 13
       -1.99000
 23
       -0.30000
 33
        0.96716
999
Fixed Shading:Mir-SHADING GROUP 1 FACE 319
  0
3DFACE
  8
Fixed Shading
 62
  9
 10
       -1.99000
 20
       -0.30000
 30
        0.96716
 11
       -1.99000
 21
       -0.58284
 31
        1.25000
 12
       -1.99000
 22
       -0.30000
 32
        1.53284
 13
       -1.99000
 23
       -0.01716
 33
        1.25000
999
Fixed Shading:SHADING GROUP 1 FACE 320
  0
3DFACE
  8
Fixed Shading
 62
  9
 10
       -1.98600
 20
       -0.30000
 30
        0.96716
 11
       -1.98600
 21
       -0.58284
 31
        1.25000
 12
       -1.98600
 22
       -0.30000
 32
        1.53284
 13
       -1.98600
 23
       -0.01716
 33
        1.25000
999
Fixed Shading:Mir-SHADING GROUP 1 FACE 320
  0
3DFACE
  8
Fixed Shading
 62
  9
 10
       -1.98600
 20
       -0.01716
 30
        1.25000
 11
       -1.98600
 21
       -0.30000
 31
        1.53284
 12
       -1.98600
 22
       -0.58284
 32
        1.25000
 13
       -1.98600
 23
       -0.30000
 33
        0.96716
999
Fixed Shading:SHADING GROUP 1 FACE 321
  0
3DFACE
  8
Fixed Shading
 62
  9
 10
       -1.99000
 20
       -0.30000
 30
        0.96716
 11
       -1.98600
 21
       -0.01716
 31
        1.25000
 12
       -1.99000
 22
       -0.01716
 32
        1.25000
 13
       -1.99000
 23
       -0.01716
 33
        1.25000
999
Fixed Shading:Mir-SHADING GROUP 1 FACE 321
  0
3DFACE
  8
Fixed Shading
 62
  9
 10
       -1.99000
 20
       -0.01716
 30
        1.25000
 11
       -1.98600
 21
       -0.01716
 31
        1.25000
 12
       -1.99000
 22
       -0.30000
 32
        0.96716
 13
       -1.99000
 23
       -0.30000
 33
        0.96716
999
Fixed Shading:SHADING GROUP 1 FACE 322
  0
3DFACE
  8
Fixed Shading
 62
  9
 10
       -1.99000
 20
       -0.58284
 30
        1.25000
 11
       -1.98600
 21
       -0.30000
 31
        0.96716
 12
       -1.99000
 22
       -0.30000
 32
        0.96716
 13
       -1.99000
 23
       -0.30000
 33
        0.96716
999
Fixed Shading:Mir-SHADING GROUP 1 FACE 322
  0
3DFACE
  8
Fixed Shading
 62
  9
 10
       -1.99000
 20
       -0.30000
 30
        0.96716
 11
       -1.98600
 21
       -0.30000
 31
        0.96716
 12
       -1.99000
 22
       -0.58284
 32
        1.25000
 13
       -1.99000
 23
       -0.58284
 33
        1.25000
999
Fixed Shading:SHADING GROUP 1 FACE 323
  0
3DFACE
  8
Fixed Shading
 62
  9
 10
       -1.99000
 20
       -0.30000
 30
        1.53284
 11
       -1.98600
 21
       -0.58284
 31
        1.25000
 12
       -1.99000
 22
       -0.58284
 32
        1.25000
 13
       -1.99000
 23
       -0.58284
 33
        1.25000
999
Fixed Shading:Mir-SHADING GROUP 1 FACE 323
  0
3DFACE
  8
Fixed Shading
 62
  9
 10
       -1.99000
 20
       -0.58284
 30
        1.25000
 11
       -1.98600
 21
       -0.58284
 31
        1.25000
 12
       -1.99000
 22
       -0.30000
 32
        1.53284
 13
       -1.99000
 23
       -0.30000
 33
        1.53284
999
Fixed Shading:SHADING GROUP 1 FACE 324
  0
3DFACE
  8
Fixed Shading
 62
  9
 10
       -1.99000
 20
       -0.01716
 30
        1.25000
 11
       -1.98600
 21
       -0.30000
 31
        1.53284
 12
       -1.99000
 22
       -0.30000
 32
        1.53284
 13
       -1.99000
 23
       -0.30000
 33
        1.53284
999
Fixed Shading:Mir-SHADING GROUP 1 FACE 324
  0
3DFACE
  8
Fixed Shading
 62
  9
 10
       -1.99000
 20
       -0.30000
 30
        1.53284
 11
       -1.98600
 21
       -0.30000
 31
        1.53284
 12
       -1.99000
 22
       -0.01716
 32
        1.25000
 13
       -1.99000
 23
       -0.01716
 33
        1.25000
999
ZONE1:ZONE1_FACE_1
  0
3DFACE
  8
ZONE1
 62
 43
 10
        2.45000
 20
        7.00000
 30
        1.55000
 11
        2.45000
 21
        7.00000
 31
       -1.55000
 12
       -2.45000
 22
        7.00000
 32
       -1.55000
 13
       -2.45000
 23
        7.00000
 33
        1.55000
999
ZONE1:ZONE1_FACE_2
  0
3DFACE
  8
ZONE1
 62
 43
 10
        2.45000
 20
        0.00000
 30
        1.55000
 11
        2.45000
 21
        0.00000
 31
       -1.55000
 12
        2.45000
 22
        7.00000
 32
       -1.55000
 13
        2.45000
 23
        7.00000
 33
        1.55000
999
ZONE1:ZONE1_FACE_3
  0
3DFACE
  8
ZONE1
 62
 43
 10
       -2.45000
 20
        7.00000
 30
        1.55000
 11
       -2.45000
 21
        7.00000
 31
       -1.55000
 12
       -2.45000
 22
        0.00000
 32
       -1.55000
 13
       -2.45000
 23
        0.00000
 33
        1.55000
999
ZONE1:ZONE1_FACE_6
  0
3DFACE
  8
ZONE1
 62
 43
 10
       -2.45000
 20
        0.00000
 30
        1.55000
 11
       -2.45000
 21
        0.00000
 31
       -1.55000
 12
        2.45000
 22
        0.00000
 32
       -1.55000
 13
        2.45000
 23
        0.00000
 33
        1.55000
999
ZONE1:ZONE1_FACE_6_WINDOW_1
  0
3DFACE
  8
ZONE1
 62
143
 10
       -2.25000
 20
        0.00000
 30
        1.50000
 11
       -2.25000
 21
        0.00000
 31
       -1.50000
 12
        2.25000
 22
        0.00000
 32
       -1.50000
 13
        2.25000
 23
        0.00000
 33
        1.50000
999
ZONE1:ZONE1_FACE_5
  0
3DFACE
  8
ZONE1
 62
  8
 10
        2.45000
 20
        7.00000
 30
       -1.55000
 11
        2.45000
 21
        0.00000
 31
       -1.55000
 12
       -2.45000
 22
        0.00000
 32
       -1.55000
 13
       -2.45000
 23
        7.00000
 33
       -1.55000
999
ZONE1:ZONE1_FACE_4
  0
3DFACE
  8
ZONE1
 62
 15
 10
       -2.45000
 20
        7.00000
 30
        1.55000
 11
       -2.45000
 21
        0.00000
 31
        1.55000
 12
        2.45000
 22
        0.00000
 32
        1.55000
 13
        2.45000
 23
        7.00000
 33
        1.55000
999
ZONE1:DayRefPt:1
  0
CIRCLE
  8
ZONE1
 62
 10
 10
        0.00000
 20
        3.50000
 30
       -0.75000
 40
        0.20000
  0
ENDSEC
  0
EOF
